xflr5 v6.61

Plane Name
T1-200.6 m/s-Panel-Inviscid_final
QInf  =  200.630000 m/s
Alpha =   10.000000
Beta  =    0.000°
Phi   =    0.000°
Ctrl  =    0.000
CL    =    1.123905
Cy    =   -0.000000
Cd    =    0.043553     ICd   =    0.043553     PCd   =    0.000000
Cl   = 1.59616e-15
Cm   =   -0.741553
ICn   =   -0.000000     PCn   =   -0.000000 
XCP   =    1.324838     YCP   =   -0.000000     ZCP   =    0.348940  
XNP   =    0.000000
Bending = 360752.706484

Main Wing
  y-span        Chord      Ai         Cl        PCd          ICd        CmGeom    CmAirf@chord/4    XTrtop    XTrBot      XCP       BM
   -8.6302     1.0331    -5.869    0.303980    0.000000    0.031233   -0.624973   -0.006166     0.0000    0.0000    0.2647    0.0000
   -8.5713     1.0455    -4.930    0.509694    0.000000    0.043936   -0.962102   -0.026109     0.0000    0.0000    0.2961    3.2180
   -8.4538     1.0703    -4.263    0.701546    0.000000    0.052252   -1.246903   -0.024571     0.0000    0.0000    0.2808   42.2095
   -8.2785     1.1072    -3.648    0.858490    0.000000    0.054664   -1.479221   -0.035675     0.0000    0.0000    0.2872   213.9406
   -8.0467     1.1560    -3.110    0.978371    0.000000    0.053084   -1.610955   -0.046700     0.0000    0.0000    0.2932   705.5024
   -7.7600     1.2163    -2.672    1.064782    0.000000    0.049599   -1.648432   -0.055058     0.0000    0.0000    0.2969   1809.4839
   -7.4202     1.2879    -2.340    1.123644    0.000000    0.045802   -1.613357   -0.060774     0.0000    0.0000    0.2992   3930.4051
   -7.0297     1.3701    -2.108    1.161103    0.000000    0.042598   -1.529080   -0.064474     0.0000    0.0000    0.3005   7584.1939
   -6.5912     1.4624    -1.961    1.182439    0.000000    0.040341   -1.415328   -0.066777     0.0000    0.0000    0.3014   13392.0141
   -6.1077     1.5642    -1.885    1.191722    0.000000    0.039053   -1.286841   -0.068143     0.0000    0.0000    0.3021   22068.7456
   -5.5825     1.6747    -1.864    1.191896    0.000000    0.038609   -1.153819   -0.068881     0.0000    0.0000    0.3027   34405.7400
   -5.0191     1.7933    -1.887    1.184972    0.000000    0.038833   -1.022889   -0.069189     0.0000    0.0000    0.3033   51247.3370
   -4.4215     1.9192    -1.945    1.172271    0.000000    0.039563   -0.898109   -0.069194     0.0000    0.0000    0.3039   73460.8125
   -3.7936     2.0513    -2.030    1.154545    0.000000    0.040627   -0.781727   -0.068977     0.0000    0.0000    0.3046   101899.9603
   -3.1398     2.1890    -2.135    1.132130    0.000000    0.041864   -0.674848   -0.068620     0.0000    0.0000    0.3055   137362.7949
   -2.4646     2.3311    -2.257    1.104990    0.000000    0.043104   -0.577901   -0.068250     0.0000    0.0000    0.3067   180544.6349
   -1.7726     2.4768    -2.388    1.072643    0.000000    0.044119   -0.491027   -0.068122     0.0000    0.0000    0.3084   231988.1095
   -1.0684     2.6251    -2.525    1.033637    0.000000    0.044589   -0.414576   -0.068897     0.0000    0.0000    0.3114   292031.3950
   -0.3569     2.7749    -2.702    0.977407    0.000000    0.043269   -0.350029   -0.072395     0.0000    0.0000    0.3178   360752.7065
    0.3569     2.7749    -2.702    0.977407    0.000000    0.043269   -0.350029   -0.072395     0.0000    0.0000    0.3178   360752.7065
    1.0684     2.6251    -2.525    1.033637    0.000000    0.044589   -0.414576   -0.068897     0.0000    0.0000    0.3114   292031.3950
    1.7726     2.4768    -2.388    1.072643    0.000000    0.044119   -0.491027   -0.068122     0.0000    0.0000    0.3084   231988.1095
    2.4646     2.3311    -2.257    1.104990    0.000000    0.043104   -0.577901   -0.068250     0.0000    0.0000    0.3067   180544.6349
    3.1398     2.1890    -2.135    1.132130    0.000000    0.041864   -0.674848   -0.068620     0.0000    0.0000    0.3055   137362.7949
    3.7936     2.0513    -2.030    1.154545    0.000000    0.040627   -0.781727   -0.068977     0.0000    0.0000    0.3046   101899.9603
    4.4215     1.9192    -1.945    1.172271    0.000000    0.039563   -0.898109   -0.069194     0.0000    0.0000    0.3039   73460.8125
    5.0191     1.7933    -1.887    1.184972    0.000000    0.038833   -1.022889   -0.069189     0.0000    0.0000    0.3033   51247.3370
    5.5825     1.6747    -1.864    1.191896    0.000000    0.038609   -1.153819   -0.068881     0.0000    0.0000    0.3027   34405.7400
    6.1077     1.5642    -1.885    1.191722    0.000000    0.039053   -1.286841   -0.068143     0.0000    0.0000    0.3021   22068.7456
    6.5912     1.4624    -1.961    1.182439    0.000000    0.040341   -1.415328   -0.066777     0.0000    0.0000    0.3014   13392.0141
    7.0297     1.3701    -2.108    1.161103    0.000000    0.042598   -1.529080   -0.064474     0.0000    0.0000    0.3005   7584.1939
    7.4202     1.2879    -2.340    1.123644    0.000000    0.045802   -1.613357   -0.060774     0.0000    0.0000    0.2992   3930.4051
    7.7600     1.2163    -2.672    1.064782    0.000000    0.049599   -1.648432   -0.055058     0.0000    0.0000    0.2969   1809.4839
    8.0467     1.1560    -3.110    0.978371    0.000000    0.053084   -1.610955   -0.046700     0.0000    0.0000    0.2932   705.5024
    8.2785     1.1072    -3.648    0.858490    0.000000    0.054664   -1.479221   -0.035675     0.0000    0.0000    0.2872   213.9406
    8.4538     1.0703    -4.263    0.701546    0.000000    0.052252   -1.246903   -0.024571     0.0000    0.0000    0.2808   42.2095
    8.5713     1.0455    -4.930    0.509694    0.000000    0.043936   -0.962102   -0.026109     0.0000    0.0000    0.2961    3.2180
    8.6302     1.0331    -5.869    0.303980    0.000000    0.031233   -0.624973   -0.006166     0.0000    0.0000    0.2647    0.0000


Main Wing Cp Coefficients
 Panel     CtrlPt.x        CtrlPt.y        CtrlPt.z       Nx      Ny       Nz        Area       Cp
Main WingCp Coefficients
Strip 1
  13       2.607e+00      -8.609e+00       6.009e-01           0.143          -0.073          -0.987       4.478e-04         -1.0091
  14       2.577e+00      -8.609e+00       5.987e-01           0.052          -0.071          -0.996       1.306e-03         -0.9753
  15       2.520e+00      -8.610e+00       5.960e-01           0.044          -0.071          -0.997       2.091e-03         -0.8406
  16       2.438e+00      -8.610e+00       5.922e-01           0.050          -0.071          -0.996       2.756e-03         -0.6146
  17       2.336e+00      -8.610e+00       5.858e-01           0.073          -0.071          -0.995       3.266e-03         -0.4236
  18       2.221e+00      -8.611e+00       5.776e-01           0.069          -0.071          -0.995       3.581e-03         -0.3051
  19       2.098e+00      -8.611e+00       5.705e-01           0.047          -0.072          -0.996       3.684e-03         -0.2256
  20       1.975e+00      -8.612e+00       5.667e-01           0.016          -0.075          -0.997       3.573e-03         -0.1600
  21       1.860e+00      -8.612e+00       5.660e-01          -0.006          -0.078          -0.997       3.259e-03         -0.0998
  22       1.758e+00      -8.612e+00       5.677e-01          -0.030          -0.081          -0.996       2.756e-03         -0.0367
  23       1.676e+00      -8.611e+00       5.719e-01          -0.080          -0.089          -0.993       2.097e-03          0.0598
  24       1.618e+00      -8.611e+00       5.799e-01          -0.228          -0.112          -0.967       1.341e-03          0.3031
  25       1.589e+00      -8.610e+00       5.936e-01          -0.742          -0.181          -0.646       6.751e-04          0.7917
  26       1.589e+00      -8.608e+00       6.133e-01          -0.823          -0.112           0.557       8.089e-04         -0.9765
  27       1.618e+00      -8.607e+00       6.351e-01          -0.432          -0.019           0.902       1.451e-03         -1.2279
  28       1.676e+00      -8.606e+00       6.546e-01          -0.245           0.017           0.969       2.155e-03         -0.7968
  29       1.758e+00      -8.604e+00       6.707e-01          -0.151           0.033           0.988       2.782e-03         -0.5947
  30       1.860e+00      -8.604e+00       6.825e-01          -0.085           0.042           0.995       3.263e-03         -0.5141
  31       1.975e+00      -8.603e+00       6.888e-01          -0.026           0.049           0.998       3.565e-03         -0.4835
  32       2.098e+00      -8.603e+00       6.877e-01           0.042           0.055           0.998       3.674e-03         -0.4670
  33       2.221e+00      -8.604e+00       6.788e-01           0.104           0.059           0.993       3.584e-03         -0.4696
  34       2.336e+00      -8.605e+00       6.636e-01           0.158           0.061           0.986       3.293e-03         -0.5284
  35       2.438e+00      -8.606e+00       6.447e-01           0.214           0.061           0.975       2.815e-03         -0.6664
  36       2.520e+00      -8.608e+00       6.259e-01           0.236           0.061           0.970       2.148e-03         -0.9055
  37       2.577e+00      -8.609e+00       6.120e-01           0.234           0.061           0.970       1.341e-03         -1.1644
  38       2.607e+00      -8.609e+00       6.044e-01           0.300           0.058           0.952       4.646e-04         -1.1995
Strip 2
  39       2.608e+00      -8.550e+00       5.968e-01           0.143          -0.073          -0.987       1.357e-03         -0.3979
  40       2.578e+00      -8.551e+00       5.945e-01           0.052          -0.071          -0.996       3.955e-03         -0.3768
  41       2.520e+00      -8.551e+00       5.918e-01           0.044          -0.071          -0.997       6.334e-03         -0.3279
  42       2.437e+00      -8.551e+00       5.879e-01           0.050          -0.071          -0.996       8.349e-03         -0.2525
  43       2.334e+00      -8.552e+00       5.815e-01           0.073          -0.071          -0.995       9.892e-03         -0.1983
  44       2.217e+00      -8.552e+00       5.732e-01           0.069          -0.071          -0.995       1.085e-02         -0.1712
  45       2.093e+00      -8.553e+00       5.660e-01           0.047          -0.072          -0.996       1.116e-02         -0.1402
  46       1.969e+00      -8.553e+00       5.621e-01           0.016          -0.075          -0.997       1.082e-02         -0.0905
  47       1.852e+00      -8.553e+00       5.615e-01          -0.006          -0.078          -0.997       9.871e-03         -0.0287
  48       1.749e+00      -8.553e+00       5.632e-01          -0.030          -0.081          -0.996       8.348e-03          0.0458
  49       1.666e+00      -8.552e+00       5.675e-01          -0.080          -0.089          -0.993       6.353e-03          0.1709
  50       1.608e+00      -8.552e+00       5.755e-01          -0.228          -0.112          -0.967       4.063e-03          0.4819
  51       1.578e+00      -8.551e+00       5.893e-01          -0.742          -0.181          -0.646       2.045e-03          0.8116
  52       1.578e+00      -8.550e+00       6.093e-01          -0.823          -0.112           0.557       2.450e-03         -1.4958
  53       1.608e+00      -8.548e+00       6.314e-01          -0.432          -0.019           0.902       4.394e-03         -1.5966
  54       1.666e+00      -8.547e+00       6.512e-01          -0.245           0.017           0.969       6.527e-03         -1.0273
  55       1.749e+00      -8.546e+00       6.674e-01          -0.151           0.033           0.988       8.425e-03         -0.7352
  56       1.852e+00      -8.545e+00       6.793e-01          -0.085           0.042           0.995       9.884e-03         -0.6032
  57       1.969e+00      -8.544e+00       6.857e-01          -0.026           0.049           0.998       1.080e-02         -0.5437
  58       2.093e+00      -8.544e+00       6.846e-01           0.042           0.055           0.998       1.113e-02         -0.4997
  59       2.217e+00      -8.545e+00       6.756e-01           0.104           0.059           0.993       1.086e-02         -0.4613
  60       2.334e+00      -8.546e+00       6.603e-01           0.158           0.061           0.986       9.974e-03         -0.4558
  61       2.437e+00      -8.547e+00       6.411e-01           0.214           0.061           0.975       8.527e-03         -0.4694
  62       2.520e+00      -8.549e+00       6.221e-01           0.236           0.061           0.970       6.508e-03         -0.5117
  63       2.578e+00      -8.550e+00       6.080e-01           0.234           0.061           0.970       4.062e-03         -0.5476
  64       2.608e+00      -8.550e+00       6.003e-01           0.300           0.058           0.952       1.407e-03         -0.4836
Strip 3
  65       2.611e+00      -8.433e+00       5.886e-01           0.143          -0.073          -0.987       2.304e-03          0.0291
  66       2.581e+00      -8.433e+00       5.863e-01           0.052          -0.071          -0.996       6.717e-03          0.0280
  67       2.521e+00      -8.434e+00       5.835e-01           0.044          -0.071          -0.997       1.076e-02          0.0141
  68       2.436e+00      -8.434e+00       5.795e-01           0.050          -0.071          -0.996       1.418e-02          0.0093
  69       2.331e+00      -8.434e+00       5.729e-01           0.073          -0.071          -0.995       1.680e-02         -0.0074
  70       2.211e+00      -8.435e+00       5.644e-01           0.069          -0.071          -0.995       1.842e-02         -0.0302
  71       2.084e+00      -8.435e+00       5.571e-01           0.047          -0.072          -0.996       1.895e-02         -0.0283
  72       1.957e+00      -8.436e+00       5.531e-01           0.016          -0.075          -0.997       1.838e-02          0.0130
  73       1.837e+00      -8.436e+00       5.524e-01          -0.006          -0.078          -0.997       1.676e-02          0.0828
  74       1.732e+00      -8.436e+00       5.542e-01          -0.030          -0.081          -0.996       1.418e-02          0.1803
  75       1.647e+00      -8.435e+00       5.585e-01          -0.080          -0.089          -0.993       1.079e-02          0.3433
  76       1.587e+00      -8.435e+00       5.668e-01          -0.228          -0.112          -0.967       6.901e-03          0.6822
  77       1.557e+00      -8.434e+00       5.809e-01          -0.742          -0.181          -0.646       3.474e-03          0.7660
  78       1.557e+00      -8.432e+00       6.014e-01          -0.823          -0.112           0.556       4.160e-03         -2.0597
  79       1.587e+00      -8.431e+00       6.240e-01          -0.432          -0.019           0.902       7.462e-03         -1.9724
  80       1.647e+00      -8.430e+00       6.442e-01          -0.245           0.017           0.969       1.108e-02         -1.2820
  81       1.732e+00      -8.429e+00       6.608e-01          -0.151           0.033           0.988       1.431e-02         -0.9189
  82       1.837e+00      -8.428e+00       6.731e-01          -0.085           0.042           0.995       1.679e-02         -0.7333
  83       1.957e+00      -8.427e+00       6.796e-01          -0.026           0.049           0.998       1.834e-02         -0.6323
  84       2.084e+00      -8.427e+00       6.785e-01           0.042           0.055           0.998       1.890e-02         -0.5455
  85       2.211e+00      -8.428e+00       6.692e-01           0.104           0.059           0.993       1.844e-02         -0.4481
  86       2.331e+00      -8.429e+00       6.536e-01           0.158           0.061           0.986       1.694e-02         -0.3552
  87       2.436e+00      -8.430e+00       6.339e-01           0.214           0.061           0.975       1.448e-02         -0.2336
  88       2.521e+00      -8.432e+00       6.145e-01           0.236           0.061           0.970       1.105e-02         -0.1085
  89       2.581e+00      -8.433e+00       6.001e-01           0.234           0.061           0.970       6.898e-03         -0.0073
  90       2.611e+00      -8.433e+00       5.921e-01           0.300           0.058           0.952       2.390e-03          0.1023
Strip 4
  91       2.616e+00      -8.258e+00       5.763e-01           0.143          -0.073          -0.987       3.314e-03          0.1254
  92       2.584e+00      -8.259e+00       5.739e-01           0.052          -0.071          -0.996       9.662e-03          0.1268
  93       2.523e+00      -8.259e+00       5.710e-01           0.044          -0.071          -0.997       1.547e-02          0.1150
  94       2.435e+00      -8.259e+00       5.669e-01           0.050          -0.071          -0.996       2.040e-02          0.1081
  95       2.326e+00      -8.259e+00       5.601e-01           0.073          -0.071          -0.995       2.416e-02          0.0860
  96       2.202e+00      -8.260e+00       5.513e-01           0.069          -0.071          -0.995       2.649e-02          0.0564
  97       2.070e+00      -8.260e+00       5.437e-01           0.047          -0.072          -0.996       2.726e-02          0.0533
  98       1.939e+00      -8.261e+00       5.396e-01           0.016          -0.075          -0.997       2.644e-02          0.0951
  99       1.815e+00      -8.261e+00       5.389e-01          -0.006          -0.078          -0.997       2.411e-02          0.1719
 100       1.706e+00      -8.261e+00       5.407e-01          -0.030          -0.081          -0.996       2.039e-02          0.2808
 101       1.618e+00      -8.260e+00       5.452e-01          -0.080          -0.089          -0.993       1.552e-02          0.4554
 102       1.557e+00      -8.260e+00       5.538e-01          -0.228          -0.112          -0.967       9.928e-03          0.7888
 103       1.525e+00      -8.259e+00       5.684e-01          -0.741          -0.181          -0.646       4.999e-03          0.6395
 104       1.525e+00      -8.258e+00       5.895e-01          -0.823          -0.112           0.556       5.982e-03         -2.5981
 105       1.557e+00      -8.256e+00       6.130e-01          -0.432          -0.019           0.901       1.073e-02         -2.2969
 106       1.618e+00      -8.255e+00       6.339e-01          -0.245           0.017           0.969       1.594e-02         -1.4888
 107       1.706e+00      -8.254e+00       6.511e-01          -0.151           0.033           0.988       2.058e-02         -1.0794
 108       1.815e+00      -8.253e+00       6.637e-01          -0.085           0.042           0.995       2.414e-02         -0.8642
 109       1.939e+00      -8.253e+00       6.705e-01          -0.026           0.049           0.998       2.638e-02         -0.7367
 110       2.070e+00      -8.253e+00       6.694e-01           0.042           0.055           0.998       2.718e-02         -0.6212
 111       2.202e+00      -8.253e+00       6.598e-01           0.104           0.059           0.993       2.652e-02         -0.4894
 112       2.326e+00      -8.254e+00       6.436e-01           0.158           0.061           0.986       2.437e-02         -0.3568
 113       2.435e+00      -8.256e+00       6.232e-01           0.214           0.061           0.975       2.083e-02         -0.1898
 114       2.523e+00      -8.257e+00       6.031e-01           0.236           0.061           0.970       1.590e-02         -0.0233
 115       2.584e+00      -8.258e+00       5.882e-01           0.234           0.061           0.970       9.922e-03          0.1049
 116       2.616e+00      -8.258e+00       5.800e-01           0.300           0.058           0.952       3.438e-03          0.2259
Strip 5
 117       2.622e+00      -8.027e+00       5.601e-01           0.143          -0.073          -0.987       4.408e-03          0.1597
 118       2.589e+00      -8.027e+00       5.576e-01           0.052          -0.071          -0.996       1.285e-02          0.1642
 119       2.525e+00      -8.028e+00       5.546e-01           0.044          -0.071          -0.997       2.058e-02          0.1569
 120       2.433e+00      -8.028e+00       5.503e-01           0.050          -0.071          -0.996       2.713e-02          0.1534
 121       2.319e+00      -8.028e+00       5.432e-01           0.073          -0.071          -0.995       3.214e-02          0.1348
 122       2.190e+00      -8.029e+00       5.340e-01           0.069          -0.071          -0.995       3.524e-02          0.1087
 123       2.052e+00      -8.029e+00       5.260e-01           0.047          -0.072          -0.996       3.625e-02          0.1087
 124       1.915e+00      -8.029e+00       5.217e-01           0.016          -0.075          -0.997       3.517e-02          0.1540
 125       1.786e+00      -8.029e+00       5.210e-01          -0.006          -0.078          -0.997       3.207e-02          0.2349
 126       1.672e+00      -8.029e+00       5.229e-01          -0.030          -0.081          -0.996       2.712e-02          0.3483
 127       1.580e+00      -8.029e+00       5.276e-01          -0.080          -0.089          -0.993       2.064e-02          0.5275
 128       1.516e+00      -8.029e+00       5.366e-01          -0.228          -0.112          -0.967       1.321e-02          0.8500
 129       1.483e+00      -8.028e+00       5.518e-01          -0.741          -0.181          -0.646       6.652e-03          0.5000
 130       1.483e+00      -8.026e+00       5.739e-01          -0.824          -0.112           0.556       7.954e-03         -3.0640
 131       1.516e+00      -8.025e+00       5.984e-01          -0.433          -0.019           0.901       1.427e-02         -2.5656
 132       1.580e+00      -8.024e+00       6.202e-01          -0.245           0.017           0.969       2.120e-02         -1.6513
 133       1.672e+00      -8.023e+00       6.382e-01          -0.151           0.033           0.988       2.737e-02         -1.2037
 134       1.786e+00      -8.022e+00       6.514e-01          -0.085           0.042           0.995       3.211e-02         -0.9698
 135       1.915e+00      -8.021e+00       6.584e-01          -0.026           0.049           0.998       3.509e-02         -0.8275
 136       2.052e+00      -8.022e+00       6.573e-01           0.042           0.055           0.998       3.616e-02         -0.6947
 137       2.190e+00      -8.022e+00       6.473e-01           0.104           0.059           0.993       3.527e-02         -0.5417
 138       2.319e+00      -8.023e+00       6.303e-01           0.158           0.061           0.986       3.241e-02         -0.3856
 139       2.433e+00      -8.024e+00       6.091e-01           0.214           0.061           0.975       2.771e-02         -0.1937
 140       2.525e+00      -8.026e+00       5.881e-01           0.236           0.061           0.970       2.114e-02         -0.0061
 141       2.589e+00      -8.026e+00       5.725e-01           0.234           0.061           0.970       1.320e-02          0.1364
 142       2.622e+00      -8.027e+00       5.640e-01           0.300           0.058           0.952       4.573e-03          0.2644
Strip 6
 143       2.629e+00      -7.741e+00       5.400e-01           0.143          -0.073          -0.987       5.604e-03          0.1748
 144       2.594e+00      -7.741e+00       5.374e-01           0.052          -0.071          -0.996       1.634e-02          0.1818
 145       2.527e+00      -7.741e+00       5.342e-01           0.044          -0.071          -0.997       2.616e-02          0.1784
 146       2.430e+00      -7.742e+00       5.297e-01           0.050          -0.071          -0.996       3.449e-02          0.1785
 147       2.311e+00      -7.742e+00       5.222e-01           0.073          -0.071          -0.995       4.086e-02          0.1640
 148       2.174e+00      -7.743e+00       5.125e-01           0.069          -0.071          -0.995       4.480e-02          0.1424
 149       2.030e+00      -7.743e+00       5.042e-01           0.047          -0.072          -0.996       4.609e-02          0.1465
 150       1.886e+00      -7.743e+00       4.996e-01           0.016          -0.075          -0.997       4.471e-02          0.1947
 151       1.749e+00      -7.743e+00       4.989e-01          -0.006          -0.078          -0.997       4.077e-02          0.2778
 152       1.630e+00      -7.743e+00       5.009e-01          -0.030          -0.081          -0.996       3.448e-02          0.3935
 153       1.533e+00      -7.743e+00       5.059e-01          -0.080          -0.089          -0.993       2.625e-02          0.5751
 154       1.466e+00      -7.742e+00       5.153e-01          -0.228          -0.112          -0.967       1.679e-02          0.8859
 155       1.431e+00      -7.742e+00       5.313e-01          -0.741          -0.181          -0.647       8.460e-03          0.3751
 156       1.431e+00      -7.740e+00       5.546e-01          -0.824          -0.113           0.555       1.011e-02         -3.4351
 157       1.466e+00      -7.739e+00       5.803e-01          -0.433          -0.019           0.901       1.813e-02         -2.7740
 158       1.533e+00      -7.738e+00       6.033e-01          -0.245           0.017           0.969       2.694e-02         -1.7729
 159       1.630e+00      -7.737e+00       6.222e-01          -0.151           0.033           0.988       3.479e-02         -1.2944
 160       1.749e+00      -7.736e+00       6.361e-01          -0.085           0.042           0.995       4.082e-02         -1.0464
 161       1.886e+00      -7.736e+00       6.435e-01          -0.026           0.049           0.998       4.461e-02         -0.8944
 162       2.030e+00      -7.736e+00       6.423e-01           0.042           0.055           0.998       4.597e-02         -0.7508
 163       2.174e+00      -7.736e+00       6.318e-01           0.104           0.059           0.993       4.485e-02         -0.5842
 164       2.311e+00      -7.737e+00       6.140e-01           0.158           0.061           0.986       4.120e-02         -0.4132
 165       2.430e+00      -7.738e+00       5.916e-01           0.214           0.061           0.975       3.522e-02         -0.2060
 166       2.527e+00      -7.740e+00       5.695e-01           0.236           0.061           0.970       2.688e-02         -0.0055
 167       2.594e+00      -7.740e+00       5.531e-01           0.234           0.061           0.970       1.678e-02          0.1459
 168       2.629e+00      -7.741e+00       5.441e-01           0.300           0.058           0.952       5.813e-03          0.2785
Strip 7
 169       2.638e+00      -7.402e+00       5.163e-01           0.143          -0.073          -0.987       6.916e-03          0.1824
 170       2.601e+00      -7.402e+00       5.135e-01           0.052          -0.071          -0.996       2.016e-02          0.1913
 171       2.530e+00      -7.402e+00       5.101e-01           0.044          -0.071          -0.997       3.229e-02          0.1907
 172       2.427e+00      -7.403e+00       5.053e-01           0.050          -0.071          -0.996       4.256e-02          0.1937
 173       2.301e+00      -7.403e+00       4.974e-01           0.073          -0.071          -0.995       5.042e-02          0.1823
 174       2.156e+00      -7.404e+00       4.871e-01           0.069          -0.071          -0.995       5.528e-02          0.1642
 175       2.004e+00      -7.404e+00       4.783e-01           0.047          -0.072          -0.996       5.687e-02          0.1714
 176       1.851e+00      -7.404e+00       4.735e-01           0.016          -0.075          -0.997       5.518e-02          0.2217
 177       1.706e+00      -7.404e+00       4.727e-01          -0.006          -0.078          -0.997       5.032e-02          0.3061
 178       1.580e+00      -7.404e+00       4.748e-01          -0.030          -0.081          -0.996       4.256e-02          0.4231
 179       1.477e+00      -7.404e+00       4.801e-01          -0.080          -0.089          -0.993       3.239e-02          0.6061
 180       1.406e+00      -7.403e+00       4.900e-01          -0.228          -0.112          -0.967       2.073e-02          0.9067
 181       1.369e+00      -7.403e+00       5.070e-01          -0.740          -0.181          -0.647       1.044e-02          0.2782
 182       1.369e+00      -7.401e+00       5.316e-01          -0.824          -0.113           0.555       1.247e-02         -3.7059
 183       1.406e+00      -7.400e+00       5.589e-01          -0.433          -0.019           0.901       2.237e-02         -2.9237
 184       1.477e+00      -7.399e+00       5.833e-01          -0.245           0.017           0.969       3.324e-02         -1.8584
 185       1.580e+00      -7.398e+00       6.033e-01          -0.151           0.033           0.988       4.293e-02         -1.3570
 186       1.706e+00      -7.397e+00       6.180e-01          -0.085           0.042           0.995       5.037e-02         -1.0986
 187       1.851e+00      -7.397e+00       6.259e-01          -0.026           0.049           0.998       5.505e-02         -0.9399
 188       2.004e+00      -7.397e+00       6.246e-01           0.042           0.055           0.998       5.673e-02         -0.7892
 189       2.156e+00      -7.398e+00       6.134e-01           0.104           0.059           0.993       5.534e-02         -0.6140
 190       2.301e+00      -7.398e+00       5.945e-01           0.158           0.061           0.986       5.085e-02         -0.4336
 191       2.427e+00      -7.400e+00       5.708e-01           0.214           0.061           0.975       4.347e-02         -0.2169
 192       2.530e+00      -7.401e+00       5.474e-01           0.236           0.061           0.970       3.317e-02         -0.0083
 193       2.601e+00      -7.402e+00       5.301e-01           0.234           0.061           0.970       2.070e-02          0.1488
 194       2.638e+00      -7.402e+00       5.205e-01           0.300           0.058           0.952       7.173e-03          0.2843
Strip 8
 195       2.648e+00      -7.013e+00       4.889e-01           0.143          -0.073          -0.987       8.352e-03          0.1868
 196       2.609e+00      -7.013e+00       4.860e-01           0.052          -0.071          -0.996       2.435e-02          0.1968
 197       2.533e+00      -7.013e+00       4.824e-01           0.044          -0.071          -0.997       3.899e-02          0.1982
 198       2.424e+00      -7.013e+00       4.773e-01           0.050          -0.071          -0.996       5.140e-02          0.2030
 199       2.289e+00      -7.014e+00       4.688e-01           0.073          -0.071          -0.995       6.089e-02          0.1937
 200       2.136e+00      -7.014e+00       4.579e-01           0.069          -0.071          -0.995       6.676e-02          0.1779
 201       1.973e+00      -7.014e+00       4.485e-01           0.047          -0.072          -0.996       6.868e-02          0.1872
 202       1.810e+00      -7.015e+00       4.434e-01           0.016          -0.075          -0.997       6.663e-02          0.2388
 203       1.657e+00      -7.015e+00       4.425e-01          -0.006          -0.078          -0.997       6.076e-02          0.3239
 204       1.522e+00      -7.015e+00       4.448e-01          -0.030          -0.081          -0.996       5.139e-02          0.4415
 205       1.413e+00      -7.014e+00       4.504e-01          -0.080          -0.089          -0.993       3.912e-02          0.6251
 206       1.337e+00      -7.014e+00       4.610e-01          -0.228          -0.112          -0.967       2.504e-02          0.9183
 207       1.298e+00      -7.013e+00       4.791e-01          -0.740          -0.181          -0.648       1.262e-02          0.2131
 208       1.298e+00      -7.012e+00       5.053e-01          -0.825          -0.113           0.554       1.505e-02         -3.8834
 209       1.337e+00      -7.011e+00       5.343e-01          -0.433          -0.019           0.901       2.700e-02         -3.0214
 210       1.413e+00      -7.010e+00       5.603e-01          -0.245           0.017           0.969       4.014e-02         -1.9136
 211       1.522e+00      -7.009e+00       5.816e-01          -0.151           0.033           0.988       5.184e-02         -1.3970
 212       1.657e+00      -7.008e+00       5.972e-01          -0.085           0.042           0.995       6.083e-02         -1.1319
 213       1.810e+00      -7.008e+00       6.056e-01          -0.026           0.049           0.998       6.648e-02         -0.9688
 214       1.973e+00      -7.008e+00       6.042e-01           0.042           0.055           0.998       6.851e-02         -0.8137
 215       2.136e+00      -7.008e+00       5.923e-01           0.104           0.059           0.993       6.684e-02         -0.6332
 216       2.289e+00      -7.009e+00       5.723e-01           0.158           0.061           0.986       6.141e-02         -0.4470
 217       2.424e+00      -7.010e+00       5.470e-01           0.214           0.061           0.975       5.249e-02         -0.2244
 218       2.533e+00      -7.011e+00       5.221e-01           0.236           0.061           0.970       4.006e-02         -0.0109
 219       2.609e+00      -7.012e+00       5.037e-01           0.234           0.061           0.970       2.500e-02          0.1497
 220       2.648e+00      -7.012e+00       4.935e-01           0.300           0.058           0.952       8.662e-03          0.2872
Strip 9
 221       2.659e+00      -6.575e+00       4.582e-01           0.143          -0.073          -0.987       9.915e-03          0.1893
 222       2.618e+00      -6.575e+00       4.551e-01           0.052          -0.071          -0.996       2.891e-02          0.2001
 223       2.536e+00      -6.575e+00       4.513e-01           0.044          -0.071          -0.997       4.629e-02          0.2027
 224       2.420e+00      -6.576e+00       4.458e-01           0.050          -0.071          -0.996       6.102e-02          0.2086
 225       2.276e+00      -6.576e+00       4.368e-01           0.073          -0.071          -0.995       7.229e-02          0.2006
 226       2.113e+00      -6.576e+00       4.252e-01           0.069          -0.071          -0.995       7.926e-02          0.1861
 227       1.939e+00      -6.577e+00       4.151e-01           0.047          -0.072          -0.996       8.154e-02          0.1965
 228       1.765e+00      -6.577e+00       4.096e-01           0.016          -0.075          -0.997       7.910e-02          0.2487
 229       1.602e+00      -6.577e+00       4.087e-01          -0.006          -0.078          -0.997       7.214e-02          0.3341
 230       1.458e+00      -6.577e+00       4.111e-01          -0.030          -0.081          -0.996       6.102e-02          0.4519
 231       1.342e+00      -6.577e+00       4.171e-01          -0.080          -0.089          -0.993       4.645e-02          0.6356
 232       1.260e+00      -6.576e+00       4.284e-01          -0.228          -0.112          -0.967       2.973e-02          0.9242
 233       1.218e+00      -6.576e+00       4.478e-01          -0.740          -0.181          -0.648       1.499e-02          0.1781
 234       1.218e+00      -6.575e+00       4.757e-01          -0.825          -0.113           0.554       1.786e-02         -3.9805
 235       1.260e+00      -6.573e+00       5.067e-01          -0.433          -0.019           0.901       3.205e-02         -3.0754
 236       1.342e+00      -6.572e+00       5.344e-01          -0.245           0.017           0.969       4.764e-02         -1.9444
 237       1.458e+00      -6.572e+00       5.572e-01          -0.151           0.033           0.988       6.153e-02         -1.4196
 238       1.602e+00      -6.571e+00       5.739e-01          -0.085           0.042           0.995       7.221e-02         -1.1509
 239       1.765e+00      -6.571e+00       5.828e-01          -0.026           0.049           0.998       7.892e-02         -0.9856
 240       1.939e+00      -6.571e+00       5.814e-01           0.042           0.055           0.998       8.133e-02         -0.8279
 241       2.113e+00      -6.571e+00       5.687e-01           0.104           0.059           0.993       7.935e-02         -0.6444
 242       2.276e+00      -6.572e+00       5.472e-01           0.158           0.061           0.986       7.290e-02         -0.4550
 243       2.420e+00      -6.573e+00       5.203e-01           0.214           0.061           0.975       6.232e-02         -0.2290
 244       2.536e+00      -6.574e+00       4.937e-01           0.236           0.061           0.970       4.756e-02         -0.0126
 245       2.618e+00      -6.575e+00       4.740e-01           0.234           0.061           0.970       2.968e-02          0.1501
 246       2.659e+00      -6.575e+00       4.631e-01           0.300           0.058           0.952       1.028e-02          0.2887
Strip 10
 247       2.672e+00      -6.093e+00       4.244e-01           0.143          -0.073          -0.987       1.160e-02          0.1908
 248       2.627e+00      -6.093e+00       4.210e-01           0.052          -0.071          -0.996       3.383e-02          0.2021
 249       2.540e+00      -6.093e+00       4.169e-01           0.044          -0.071          -0.997       5.417e-02          0.2053
 250       2.416e+00      -6.093e+00       4.111e-01           0.050          -0.071          -0.996       7.140e-02          0.2117
 251       2.262e+00      -6.094e+00       4.014e-01           0.073          -0.071          -0.995       8.459e-02          0.2043
 252       2.087e+00      -6.094e+00       3.890e-01           0.069          -0.071          -0.995       9.275e-02          0.1905
 253       1.901e+00      -6.094e+00       3.783e-01           0.047          -0.072          -0.996       9.542e-02          0.2013
 254       1.715e+00      -6.095e+00       3.724e-01           0.016          -0.075          -0.997       9.257e-02          0.2537
 255       1.540e+00      -6.095e+00       3.714e-01          -0.006          -0.078          -0.997       8.442e-02          0.3389
 256       1.386e+00      -6.095e+00       3.740e-01          -0.030          -0.081          -0.996       7.140e-02          0.4564
 257       1.262e+00      -6.094e+00       3.804e-01          -0.080          -0.089          -0.993       5.436e-02          0.6397
 258       1.175e+00      -6.094e+00       3.925e-01          -0.228          -0.112          -0.967       3.480e-02          0.9265
 259       1.130e+00      -6.093e+00       4.132e-01          -0.739          -0.181          -0.648       1.755e-02          0.1686
 260       1.130e+00      -6.092e+00       4.431e-01          -0.825          -0.113           0.553       2.089e-02         -4.0117
 261       1.175e+00      -6.091e+00       4.763e-01          -0.433          -0.019           0.901       3.749e-02         -3.0943
 262       1.262e+00      -6.090e+00       5.059e-01          -0.245           0.017           0.969       5.574e-02         -1.9560
 263       1.386e+00      -6.089e+00       5.302e-01          -0.151           0.033           0.988       7.200e-02         -1.4289
 264       1.540e+00      -6.089e+00       5.482e-01          -0.085           0.042           0.995       8.450e-02         -1.1593
 265       1.715e+00      -6.089e+00       5.577e-01          -0.026           0.049           0.998       9.235e-02         -0.9933
 266       1.901e+00      -6.089e+00       5.561e-01           0.042           0.055           0.998       9.518e-02         -0.8348
 267       2.087e+00      -6.089e+00       5.426e-01           0.104           0.059           0.993       9.286e-02         -0.6499
 268       2.262e+00      -6.090e+00       5.196e-01           0.158           0.061           0.986       8.532e-02         -0.4589
 269       2.416e+00      -6.091e+00       4.908e-01           0.214           0.061           0.975       7.293e-02         -0.2311
 270       2.540e+00      -6.092e+00       4.623e-01           0.236           0.061           0.970       5.565e-02         -0.0132
 271       2.627e+00      -6.092e+00       4.413e-01           0.234           0.061           0.970       3.473e-02          0.1505
 272       2.672e+00      -6.093e+00       4.296e-01           0.300           0.058           0.952       1.203e-02          0.2897
Strip 11
 273       2.685e+00      -5.569e+00       3.877e-01           0.143          -0.073          -0.987       1.341e-02          0.1918
 274       2.637e+00      -5.569e+00       3.840e-01           0.052          -0.071          -0.996       3.909e-02          0.2032
 275       2.544e+00      -5.569e+00       3.797e-01           0.044          -0.071          -0.997       6.259e-02          0.2066
 276       2.411e+00      -5.569e+00       3.734e-01           0.050          -0.071          -0.996       8.250e-02          0.2132
 277       2.247e+00      -5.570e+00       3.631e-01           0.073          -0.071          -0.995       9.774e-02          0.2059
 278       2.059e+00      -5.570e+00       3.497e-01           0.069          -0.071          -0.995       1.072e-01          0.1921
 279       1.860e+00      -5.570e+00       3.382e-01           0.047          -0.072          -0.996       1.102e-01          0.2029
 280       1.661e+00      -5.570e+00       3.319e-01           0.016          -0.075          -0.997       1.070e-01          0.2550
 281       1.474e+00      -5.571e+00       3.309e-01          -0.006          -0.078          -0.997       9.754e-02          0.3397
 282       1.309e+00      -5.570e+00       3.337e-01          -0.030          -0.081          -0.996       8.251e-02          0.4566
 283       1.176e+00      -5.570e+00       3.405e-01          -0.080          -0.089          -0.993       6.281e-02          0.6391
 284       1.083e+00      -5.570e+00       3.535e-01          -0.228          -0.112          -0.967       4.021e-02          0.9260
 285       1.035e+00      -5.569e+00       3.757e-01          -0.739          -0.181          -0.649       2.028e-02          0.1800
 286       1.035e+00      -5.568e+00       4.077e-01          -0.826          -0.113           0.552       2.413e-02         -3.9898
 287       1.083e+00      -5.567e+00       4.432e-01          -0.434          -0.019           0.901       4.331e-02         -3.0851
 288       1.176e+00      -5.567e+00       4.750e-01          -0.245           0.017           0.969       6.440e-02         -1.9524
 289       1.309e+00      -5.566e+00       5.010e-01          -0.151           0.033           0.988       8.319e-02         -1.4279
 290       1.474e+00      -5.565e+00       5.202e-01          -0.085           0.042           0.995       9.763e-02         -1.1597
 291       1.661e+00      -5.565e+00       5.304e-01          -0.026           0.049           0.998       1.067e-01         -0.9945
 292       1.860e+00      -5.565e+00       5.287e-01           0.042           0.055           0.998       1.100e-01         -0.8362
 293       2.059e+00      -5.565e+00       5.142e-01           0.104           0.059           0.993       1.073e-01         -0.6512
 294       2.247e+00      -5.566e+00       4.896e-01           0.158           0.061           0.986       9.858e-02         -0.4598
 295       2.411e+00      -5.567e+00       4.588e-01           0.214           0.061           0.975       8.427e-02         -0.2315
 296       2.544e+00      -5.568e+00       4.283e-01           0.236           0.061           0.970       6.430e-02         -0.0131
 297       2.637e+00      -5.568e+00       4.057e-01           0.234           0.061           0.970       4.013e-02          0.1511
 298       2.685e+00      -5.569e+00       3.932e-01           0.300           0.058           0.952       1.390e-02          0.2906
Strip 12
 299       2.700e+00      -5.007e+00       3.482e-01           0.143          -0.073          -0.987       1.531e-02          0.1924
 300       2.649e+00      -5.007e+00       3.443e-01           0.052          -0.071          -0.996       4.464e-02          0.2037
 301       2.549e+00      -5.007e+00       3.397e-01           0.044          -0.071          -0.997       7.148e-02          0.2069
 302       2.407e+00      -5.007e+00       3.329e-01           0.050          -0.071          -0.996       9.422e-02          0.2134
 303       2.230e+00      -5.008e+00       3.219e-01           0.073          -0.071          -0.995       1.116e-01          0.2059
 304       2.029e+00      -5.008e+00       3.076e-01           0.069          -0.071          -0.995       1.224e-01          0.1918
 305       1.816e+00      -5.008e+00       2.953e-01           0.047          -0.072          -0.996       1.259e-01          0.2021
 306       1.603e+00      -5.008e+00       2.885e-01           0.016          -0.075          -0.997       1.222e-01          0.2535
 307       1.403e+00      -5.008e+00       2.874e-01          -0.006          -0.078          -0.997       1.114e-01          0.3375
 308       1.226e+00      -5.008e+00       2.904e-01          -0.030          -0.081          -0.996       9.423e-02          0.4533
 309       1.084e+00      -5.008e+00       2.977e-01          -0.080          -0.089          -0.993       7.174e-02          0.6345
 310       9.840e-01      -5.008e+00       3.117e-01          -0.228          -0.112          -0.967       4.594e-02          0.9234
 311       9.327e-01      -5.007e+00       3.354e-01          -0.739          -0.181          -0.649       2.317e-02          0.2077
 312       9.327e-01      -5.006e+00       3.697e-01          -0.826          -0.113           0.552       2.755e-02         -3.9250
 313       9.840e-01      -5.006e+00       4.078e-01          -0.434          -0.020           0.901       4.944e-02         -3.0532
 314       1.084e+00      -5.005e+00       4.418e-01          -0.245           0.017           0.969       7.353e-02         -1.9368
 315       1.226e+00      -5.004e+00       4.697e-01          -0.151           0.033           0.988       9.499e-02         -1.4188
 316       1.403e+00      -5.004e+00       4.902e-01          -0.085           0.042           0.995       1.115e-01         -1.1538
 317       1.603e+00      -5.003e+00       5.012e-01          -0.026           0.049           0.998       1.219e-01         -0.9906
 318       1.816e+00      -5.003e+00       4.994e-01           0.042           0.055           0.998       1.256e-01         -0.8336
 319       2.029e+00      -5.004e+00       4.838e-01           0.104           0.059           0.993       1.225e-01         -0.6495
 320       2.230e+00      -5.004e+00       4.574e-01           0.158           0.061           0.986       1.126e-01         -0.4586
 321       2.407e+00      -5.005e+00       4.244e-01           0.214           0.061           0.975       9.624e-02         -0.2306
 322       2.549e+00      -5.006e+00       3.917e-01           0.236           0.061           0.970       7.344e-02         -0.0123
 323       2.649e+00      -5.006e+00       3.676e-01           0.234           0.061           0.970       4.583e-02          0.1518
 324       2.700e+00      -5.007e+00       3.542e-01           0.300           0.058           0.952       1.588e-02          0.2913
Strip 13
 325       2.715e+00      -4.411e+00       3.064e-01           0.143          -0.073          -0.987       1.730e-02          0.1927
 326       2.660e+00      -4.411e+00       3.022e-01           0.052          -0.071          -0.996       5.043e-02          0.2038
 327       2.554e+00      -4.411e+00       2.972e-01           0.044          -0.071          -0.997       8.075e-02          0.2067
 328       2.401e+00      -4.411e+00       2.900e-01           0.050          -0.071          -0.996       1.064e-01          0.2127
 329       2.212e+00      -4.411e+00       2.782e-01           0.073          -0.071          -0.995       1.261e-01          0.2047
 330       1.998e+00      -4.412e+00       2.629e-01           0.069          -0.071          -0.995       1.382e-01          0.1899
 331       1.770e+00      -4.412e+00       2.497e-01           0.047          -0.072          -0.996       1.422e-01          0.1994
 332       1.542e+00      -4.412e+00       2.425e-01           0.016          -0.075          -0.997       1.380e-01          0.2498
 333       1.327e+00      -4.412e+00       2.413e-01          -0.006          -0.078          -0.997       1.258e-01          0.3327
 334       1.138e+00      -4.412e+00       2.445e-01          -0.030          -0.081          -0.996       1.064e-01          0.4471
 335       9.858e-01      -4.412e+00       2.524e-01          -0.080          -0.089          -0.993       8.104e-02          0.6268
 336       8.790e-01      -4.411e+00       2.673e-01          -0.228          -0.112          -0.967       5.190e-02          0.9186
 337       8.241e-01      -4.411e+00       2.927e-01          -0.739          -0.181          -0.649       2.619e-02          0.2487
 338       8.241e-01      -4.410e+00       3.294e-01          -0.826          -0.113           0.552       3.111e-02         -3.8247
 339       8.790e-01      -4.410e+00       3.701e-01          -0.434          -0.020           0.901       5.584e-02         -3.0023
 340       9.858e-01      -4.409e+00       4.065e-01          -0.246           0.017           0.969       8.305e-02         -1.9112
 341       1.138e+00      -4.408e+00       4.364e-01          -0.151           0.033           0.988       1.073e-01         -1.4031
 342       1.327e+00      -4.408e+00       4.584e-01          -0.085           0.042           0.995       1.259e-01         -1.1430
 343       1.542e+00      -4.408e+00       4.701e-01          -0.026           0.049           0.998       1.377e-01         -0.9827
 344       1.770e+00      -4.408e+00       4.682e-01           0.042           0.055           0.998       1.419e-01         -0.8278
 345       1.998e+00      -4.408e+00       4.515e-01           0.104           0.059           0.993       1.384e-01         -0.6453
 346       2.212e+00      -4.408e+00       4.233e-01           0.158           0.061           0.986       1.272e-01         -0.4556
 347       2.401e+00      -4.409e+00       3.879e-01           0.214           0.061           0.975       1.087e-01         -0.2286
 348       2.554e+00      -4.410e+00       3.530e-01           0.236           0.061           0.970       8.295e-02         -0.0109
 349       2.660e+00      -4.410e+00       3.271e-01           0.234           0.061           0.970       5.177e-02          0.1527
 350       2.715e+00      -4.411e+00       3.128e-01           0.300           0.058           0.952       1.794e-02          0.2919
Strip 14
 351       2.732e+00      -3.784e+00       2.625e-01           0.143          -0.073          -0.987       1.934e-02          0.1927
 352       2.673e+00      -3.784e+00       2.580e-01           0.052          -0.071          -0.996       5.637e-02          0.2035
 353       2.559e+00      -3.785e+00       2.527e-01           0.044          -0.071          -0.997       9.026e-02          0.2059
 354       2.396e+00      -3.785e+00       2.450e-01           0.050          -0.071          -0.996       1.190e-01          0.2114
 355       2.194e+00      -3.785e+00       2.323e-01           0.073          -0.071          -0.995       1.409e-01          0.2026
 356       1.964e+00      -3.785e+00       2.160e-01           0.069          -0.071          -0.995       1.545e-01          0.1868
 357       1.721e+00      -3.785e+00       2.019e-01           0.047          -0.072          -0.996       1.590e-01          0.1951
 358       1.477e+00      -3.785e+00       1.941e-01           0.016          -0.075          -0.997       1.542e-01          0.2444
 359       1.248e+00      -3.785e+00       1.929e-01          -0.006          -0.078          -0.997       1.407e-01          0.3258
 360       1.046e+00      -3.785e+00       1.963e-01          -0.030          -0.081          -0.996       1.190e-01          0.4384
 361       8.828e-01      -3.785e+00       2.047e-01          -0.080          -0.089          -0.993       9.059e-02          0.6161
 362       7.687e-01      -3.785e+00       2.206e-01          -0.228          -0.112          -0.967       5.802e-02          0.9116
 363       7.100e-01      -3.785e+00       2.478e-01          -0.738          -0.181          -0.650       2.928e-02          0.3002
 364       7.100e-01      -3.784e+00       2.870e-01          -0.827          -0.113           0.551       3.477e-02         -3.6937
 365       7.687e-01      -3.783e+00       3.306e-01          -0.434          -0.020           0.901       6.240e-02         -2.9350
 366       8.828e-01      -3.783e+00       3.695e-01          -0.246           0.017           0.969       9.282e-02         -1.8768
 367       1.046e+00      -3.782e+00       4.014e-01          -0.151           0.033           0.988       1.199e-01         -1.3817
 368       1.248e+00      -3.782e+00       4.250e-01          -0.085           0.042           0.995       1.408e-01         -1.1280
 369       1.477e+00      -3.782e+00       4.375e-01          -0.026           0.049           0.998       1.539e-01         -0.9715
 370       1.721e+00      -3.782e+00       4.354e-01           0.042           0.055           0.998       1.586e-01         -0.8193
 371       1.964e+00      -3.782e+00       4.176e-01           0.104           0.059           0.993       1.547e-01         -0.6391
 372       2.194e+00      -3.782e+00       3.875e-01           0.158           0.061           0.986       1.422e-01         -0.4513
 373       2.396e+00      -3.783e+00       3.496e-01           0.214           0.061           0.975       1.215e-01         -0.2257
 374       2.559e+00      -3.784e+00       3.123e-01           0.236           0.061           0.970       9.273e-02         -0.0092
 375       2.673e+00      -3.784e+00       2.846e-01           0.234           0.061           0.970       5.787e-02          0.1537
 376       2.732e+00      -3.784e+00       2.693e-01           0.300           0.058           0.952       2.005e-02          0.2926
Strip 15
 377       2.748e+00      -3.132e+00       2.167e-01           0.143          -0.073          -0.987       2.140e-02          0.1925
 378       2.686e+00      -3.132e+00       2.120e-01           0.052          -0.071          -0.996       6.237e-02          0.2030
 379       2.564e+00      -3.132e+00       2.063e-01           0.044          -0.071          -0.997       9.988e-02          0.2047
 380       2.390e+00      -3.132e+00       1.980e-01           0.050          -0.071          -0.996       1.316e-01          0.2094
 381       2.175e+00      -3.133e+00       1.845e-01           0.073          -0.071          -0.995       1.560e-01          0.1996
 382       1.930e+00      -3.133e+00       1.671e-01           0.069          -0.071          -0.995       1.710e-01          0.1826
 383       1.670e+00      -3.133e+00       1.520e-01           0.047          -0.072          -0.996       1.759e-01          0.1895
 384       1.410e+00      -3.133e+00       1.438e-01           0.016          -0.075          -0.997       1.707e-01          0.2372
 385       1.165e+00      -3.133e+00       1.424e-01          -0.006          -0.078          -0.997       1.557e-01          0.3169
 386       9.493e-01      -3.133e+00       1.461e-01          -0.030          -0.081          -0.996       1.317e-01          0.4273
 387       7.756e-01      -3.133e+00       1.550e-01          -0.080          -0.089          -0.993       1.002e-01          0.6024
 388       6.539e-01      -3.133e+00       1.720e-01          -0.228          -0.112          -0.967       6.421e-02          0.9020
 389       5.912e-01      -3.132e+00       2.010e-01          -0.738          -0.181          -0.650       3.241e-02          0.3608
 390       5.912e-01      -3.132e+00       2.430e-01          -0.827          -0.113           0.551       3.846e-02         -3.5338
 391       6.539e-01      -3.131e+00       2.894e-01          -0.434          -0.020           0.901       6.903e-02         -2.8519
 392       7.756e-01      -3.131e+00       3.310e-01          -0.246           0.017           0.969       1.027e-01         -1.8342
 393       9.493e-01      -3.130e+00       3.650e-01          -0.151           0.033           0.988       1.327e-01         -1.3548
 394       1.165e+00      -3.130e+00       3.901e-01          -0.085           0.042           0.995       1.558e-01         -1.1090
 395       1.410e+00      -3.130e+00       4.035e-01          -0.026           0.049           0.998       1.703e-01         -0.9572
 396       1.670e+00      -3.130e+00       4.013e-01           0.042           0.056           0.998       1.755e-01         -0.8086
 397       1.930e+00      -3.130e+00       3.823e-01           0.104           0.059           0.993       1.712e-01         -0.6313
 398       2.175e+00      -3.131e+00       3.501e-01           0.158           0.061           0.986       1.573e-01         -0.4458
 399       2.390e+00      -3.131e+00       3.098e-01           0.214           0.061           0.975       1.345e-01         -0.2221
 400       2.564e+00      -3.132e+00       2.699e-01           0.236           0.061           0.970       1.026e-01         -0.0071
 401       2.686e+00      -3.132e+00       2.403e-01           0.234           0.061           0.970       6.403e-02          0.1547
 402       2.748e+00      -3.132e+00       2.240e-01           0.300           0.058           0.952       2.218e-02          0.2931
Strip 16
 403       2.766e+00      -2.459e+00       1.695e-01           0.143          -0.073          -0.987       2.344e-02          0.1923
 404       2.699e+00      -2.459e+00       1.644e-01           0.052          -0.071          -0.996       6.834e-02          0.2022
 405       2.569e+00      -2.459e+00       1.583e-01           0.044          -0.071          -0.997       1.094e-01          0.2030
 406       2.384e+00      -2.459e+00       1.496e-01           0.050          -0.071          -0.996       1.442e-01          0.2069
 407       2.155e+00      -2.459e+00       1.352e-01           0.073          -0.071          -0.995       1.709e-01          0.1960
 408       1.894e+00      -2.459e+00       1.166e-01           0.069          -0.071          -0.995       1.873e-01          0.1775
 409       1.617e+00      -2.459e+00       1.006e-01           0.047          -0.072          -0.996       1.927e-01          0.1826
 410       1.340e+00      -2.459e+00       9.179e-02           0.016          -0.075          -0.997       1.870e-01          0.2285
 411       1.079e+00      -2.459e+00       9.034e-02          -0.006          -0.078          -0.997       1.705e-01          0.3061
 412       8.499e-01      -2.459e+00       9.422e-02          -0.030          -0.081          -0.996       1.443e-01          0.4137
 413       6.649e-01      -2.459e+00       1.038e-01          -0.080          -0.089          -0.993       1.098e-01          0.5855
 414       5.353e-01      -2.459e+00       1.219e-01          -0.228          -0.112          -0.967       7.036e-02          0.8892
 415       4.685e-01      -2.459e+00       1.528e-01          -0.738          -0.181          -0.650       3.552e-02          0.4297
 416       4.685e-01      -2.458e+00       1.974e-01          -0.827          -0.113           0.550       4.213e-02         -3.3442
 417       5.353e-01      -2.458e+00       2.469e-01          -0.434          -0.020           0.901       7.561e-02         -2.7520
 418       6.649e-01      -2.458e+00       2.912e-01          -0.246           0.017           0.969       1.125e-01         -1.7828
 419       8.499e-01      -2.457e+00       3.275e-01          -0.151           0.033           0.988       1.454e-01         -1.3225
 420       1.079e+00      -2.457e+00       3.542e-01          -0.085           0.042           0.995       1.706e-01         -1.0861
 421       1.340e+00      -2.457e+00       3.685e-01          -0.026           0.049           0.998       1.865e-01         -0.9403
 422       1.617e+00      -2.457e+00       3.661e-01           0.042           0.056           0.998       1.923e-01         -0.7961
 423       1.894e+00      -2.457e+00       3.458e-01           0.104           0.059           0.993       1.876e-01         -0.6222
 424       2.155e+00      -2.457e+00       3.116e-01           0.158           0.061           0.986       1.724e-01         -0.4394
 425       2.384e+00      -2.458e+00       2.686e-01           0.214           0.061           0.975       1.473e-01         -0.2181
 426       2.569e+00      -2.458e+00       2.261e-01           0.236           0.061           0.970       1.124e-01         -0.0049
 427       2.699e+00      -2.458e+00       1.946e-01           0.234           0.061           0.970       7.015e-02          0.1559
 428       2.766e+00      -2.459e+00       1.773e-01           0.300           0.058           0.952       2.430e-02          0.2937
Strip 17
 429       2.784e+00      -1.768e+00       1.210e-01           0.143          -0.073          -0.987       2.543e-02          0.1918
 430       2.713e+00      -1.768e+00       1.157e-01           0.052          -0.071          -0.996       7.414e-02          0.2013
 431       2.575e+00      -1.768e+00       1.092e-01           0.044          -0.071          -0.997       1.187e-01          0.2012
 432       2.378e+00      -1.768e+00       9.989e-02           0.050          -0.071          -0.996       1.565e-01          0.2041
 433       2.135e+00      -1.768e+00       8.462e-02           0.073          -0.071          -0.995       1.854e-01          0.1920
 434       1.857e+00      -1.769e+00       6.489e-02           0.069          -0.071          -0.995       2.033e-01          0.1718
 435       1.563e+00      -1.769e+00       4.781e-02           0.047          -0.072          -0.996       2.091e-01          0.1749
 436       1.269e+00      -1.769e+00       3.849e-02           0.016          -0.075          -0.997       2.029e-01          0.2185
 437       9.919e-01      -1.769e+00       3.695e-02          -0.006          -0.078          -0.997       1.850e-01          0.2933
 438       7.480e-01      -1.769e+00       4.107e-02          -0.030          -0.081          -0.996       1.565e-01          0.3974
 439       5.514e-01      -1.769e+00       5.123e-02          -0.080          -0.089          -0.993       1.192e-01          0.5646
 440       4.137e-01      -1.769e+00       7.046e-02          -0.228          -0.112          -0.967       7.635e-02          0.8717
 441       3.428e-01      -1.768e+00       1.033e-01          -0.738          -0.181          -0.650       3.855e-02          0.5078
 442       3.428e-01      -1.768e+00       1.507e-01          -0.827          -0.113           0.550       4.570e-02         -3.1180
 443       4.137e-01      -1.768e+00       2.034e-01          -0.434          -0.020           0.901       8.203e-02         -2.6314
 444       5.514e-01      -1.768e+00       2.504e-01          -0.246           0.017           0.969       1.220e-01         -1.7208
 445       7.480e-01      -1.767e+00       2.889e-01          -0.151           0.033           0.988       1.577e-01         -1.2839
 446       9.919e-01      -1.767e+00       3.174e-01          -0.085           0.042           0.995       1.851e-01         -1.0595
 447       1.269e+00      -1.767e+00       3.325e-01          -0.026           0.049           0.998       2.024e-01         -0.9210
 448       1.563e+00      -1.767e+00       3.300e-01           0.042           0.056           0.998       2.086e-01         -0.7821
 449       1.857e+00      -1.767e+00       3.085e-01           0.104           0.059           0.993       2.036e-01         -0.6125
 450       2.135e+00      -1.767e+00       2.721e-01           0.158           0.061           0.986       1.870e-01         -0.4329
 451       2.378e+00      -1.768e+00       2.263e-01           0.214           0.061           0.975       1.599e-01         -0.2141
 452       2.575e+00      -1.768e+00       1.812e-01           0.236           0.061           0.970       1.220e-01         -0.0026
 453       2.713e+00      -1.768e+00       1.478e-01           0.234           0.061           0.970       7.611e-02          0.1569
 454       2.784e+00      -1.768e+00       1.293e-01           0.300           0.058           0.952       2.637e-02          0.2940
Strip 18
 455       2.802e+00      -1.066e+00       7.176e-02           0.143          -0.073          -0.987       2.733e-02          0.1912
 456       2.727e+00      -1.066e+00       6.607e-02           0.052          -0.071          -0.996       7.967e-02          0.2001
 457       2.581e+00      -1.066e+00       5.921e-02           0.044          -0.071          -0.997       1.276e-01          0.1991
 458       2.372e+00      -1.066e+00       4.935e-02           0.050          -0.071          -0.996       1.682e-01          0.2011
 459       2.114e+00      -1.066e+00       3.315e-02           0.073          -0.071          -0.995       1.992e-01          0.1878
 460       1.820e+00      -1.066e+00       1.224e-02           0.069          -0.071          -0.995       2.184e-01          0.1660
 461       1.508e+00      -1.066e+00      -5.859e-03           0.047          -0.072          -0.996       2.247e-01          0.1671
 462       1.196e+00      -1.066e+00      -1.574e-02           0.016          -0.075          -0.997       2.180e-01          0.2080
 463       9.028e-01      -1.066e+00      -1.738e-02          -0.006          -0.078          -0.997       1.988e-01          0.2792
 464       6.443e-01      -1.066e+00      -1.301e-02          -0.030          -0.081          -0.996       1.682e-01          0.3780
 465       4.360e-01      -1.066e+00      -2.239e-03          -0.080          -0.089          -0.993       1.281e-01          0.5384
 466       2.900e-01      -1.066e+00       1.815e-02          -0.228          -0.112          -0.967       8.205e-02          0.8472
 467       2.148e-01      -1.066e+00       5.293e-02          -0.737          -0.181          -0.651       4.143e-02          0.5995
 468       2.148e-01      -1.066e+00       1.032e-01          -0.827          -0.114           0.550       4.910e-02         -2.8342
 469       2.900e-01      -1.066e+00       1.590e-01          -0.434          -0.020           0.901       8.813e-02         -2.4775
 470       4.360e-01      -1.065e+00       2.089e-01          -0.246           0.017           0.969       1.311e-01         -1.6423
 471       6.443e-01      -1.065e+00       2.497e-01          -0.151           0.033           0.988       1.695e-01         -1.2370
 472       9.028e-01      -1.065e+00       2.799e-01          -0.085           0.042           0.995       1.990e-01         -1.0292
 473       1.196e+00      -1.065e+00       2.959e-01          -0.026           0.049           0.998       2.175e-01         -0.9011
 474       1.508e+00      -1.065e+00       2.933e-01           0.042           0.056           0.998       2.242e-01         -0.7692
 475       1.820e+00      -1.065e+00       2.704e-01           0.104           0.059           0.993       2.187e-01         -0.6041
 476       2.114e+00      -1.065e+00       2.319e-01           0.158           0.061           0.986       2.010e-01         -0.4274
 477       2.372e+00      -1.065e+00       1.834e-01           0.214           0.061           0.975       1.718e-01         -0.2106
 478       2.581e+00      -1.066e+00       1.355e-01           0.236           0.061           0.970       1.311e-01         -0.0007
 479       2.727e+00      -1.066e+00       1.001e-01           0.234           0.061           0.970       8.179e-02          0.1576
 480       2.802e+00      -1.066e+00       8.054e-02           0.300           0.058           0.952       2.834e-02          0.2942
Strip 19
 481       2.820e+00      -3.561e-01       2.198e-02           0.143          -0.073          -0.987       2.909e-02          0.1907
 482       2.741e+00      -3.561e-01       1.596e-02           0.052          -0.071          -0.996       8.480e-02          0.1992
 483       2.586e+00      -3.561e-01       8.703e-03           0.044          -0.071          -0.997       1.358e-01          0.1973
 484       2.366e+00      -3.561e-01      -1.723e-03           0.050          -0.071          -0.996       1.790e-01          0.1981
 485       2.093e+00      -3.561e-01      -1.884e-02           0.073          -0.071          -0.995       2.120e-01          0.1835
 486       1.782e+00      -3.561e-01      -4.095e-02           0.069          -0.071          -0.995       2.325e-01          0.1607
 487       1.453e+00      -3.562e-01      -6.009e-02           0.047          -0.072          -0.996       2.392e-01          0.1608
 488       1.123e+00      -3.562e-01      -7.054e-02           0.016          -0.075          -0.997       2.320e-01          0.2000
 489       8.128e-01      -3.562e-01      -7.227e-02          -0.006          -0.078          -0.997       2.116e-01          0.2672
 490       5.395e-01      -3.562e-01      -6.765e-02          -0.030          -0.081          -0.996       1.790e-01          0.3582
 491       3.193e-01      -3.562e-01      -5.626e-02          -0.080          -0.089          -0.993       1.363e-01          0.5081
 492       1.650e-01      -3.561e-01      -3.471e-02          -0.228          -0.112          -0.967       8.733e-02          0.8138
 493       8.556e-02      -3.561e-01       2.070e-03          -0.737          -0.181          -0.651       4.411e-02          0.7204
 494       8.556e-02      -3.560e-01       5.526e-02          -0.828          -0.114           0.550       5.225e-02         -2.4101
 495       1.650e-01      -3.560e-01       1.142e-01          -0.434          -0.020           0.900       9.378e-02         -2.2300
 496       3.193e-01      -3.559e-01       1.669e-01          -0.246           0.017           0.969       1.396e-01         -1.5238
 497       5.395e-01      -3.559e-01       2.101e-01          -0.151           0.033           0.988       1.804e-01         -1.1822
 498       8.128e-01      -3.558e-01       2.420e-01          -0.085           0.042           0.995       2.117e-01         -1.0027
 499       1.123e+00      -3.558e-01       2.590e-01          -0.026           0.049           0.998       2.315e-01         -0.8896
 500       1.453e+00      -3.558e-01       2.562e-01           0.042           0.056           0.998       2.386e-01         -0.7652
 501       1.782e+00      -3.559e-01       2.320e-01           0.104           0.059           0.993       2.328e-01         -0.6029
 502       2.093e+00      -3.559e-01       1.912e-01           0.158           0.061           0.986       2.139e-01         -0.4261
 503       2.366e+00      -3.560e-01       1.400e-01           0.214           0.061           0.975       1.828e-01         -0.2085
 504       2.586e+00      -3.560e-01       8.938e-02           0.236           0.061           0.970       1.395e-01          0.0016
 505       2.741e+00      -3.561e-01       5.194e-02           0.234           0.061           0.970       8.705e-02          0.1590
 506       2.820e+00      -3.561e-01       3.126e-02           0.300           0.058           0.952       3.016e-02          0.2947
Strip 20
 507       2.820e+00       3.561e-01       2.198e-02           0.143           0.073          -0.987       2.909e-02          0.1907
 508       2.741e+00       3.561e-01       1.596e-02           0.052           0.071          -0.996       8.480e-02          0.1992
 509       2.586e+00       3.561e-01       8.703e-03           0.044           0.071          -0.997       1.358e-01          0.1973
 510       2.366e+00       3.561e-01      -1.723e-03           0.050           0.071          -0.996       1.790e-01          0.1981
 511       2.093e+00       3.561e-01      -1.884e-02           0.073           0.071          -0.995       2.120e-01          0.1835
 512       1.782e+00       3.561e-01      -4.095e-02           0.069           0.071          -0.995       2.325e-01          0.1607
 513       1.453e+00       3.562e-01      -6.009e-02           0.047           0.072          -0.996       2.392e-01          0.1608
 514       1.123e+00       3.562e-01      -7.054e-02           0.016           0.075          -0.997       2.320e-01          0.2000
 515       8.128e-01       3.562e-01      -7.227e-02          -0.006           0.078          -0.997       2.116e-01          0.2672
 516       5.395e-01       3.562e-01      -6.765e-02          -0.030           0.081          -0.996       1.790e-01          0.3582
 517       3.193e-01       3.562e-01      -5.626e-02          -0.080           0.089          -0.993       1.363e-01          0.5081
 518       1.650e-01       3.561e-01      -3.471e-02          -0.228           0.112          -0.967       8.733e-02          0.8138
 519       8.556e-02       3.561e-01       2.070e-03          -0.737           0.181          -0.651       4.411e-02          0.7204
 520       8.556e-02       3.560e-01       5.526e-02          -0.828           0.114           0.550       5.225e-02         -2.4101
 521       1.650e-01       3.560e-01       1.142e-01          -0.434           0.020           0.900       9.378e-02         -2.2300
 522       3.193e-01       3.559e-01       1.669e-01          -0.246          -0.017           0.969       1.396e-01         -1.5238
 523       5.395e-01       3.559e-01       2.101e-01          -0.151          -0.033           0.988       1.804e-01         -1.1822
 524       8.128e-01       3.558e-01       2.420e-01          -0.085          -0.042           0.995       2.117e-01         -1.0027
 525       1.123e+00       3.558e-01       2.590e-01          -0.026          -0.049           0.998       2.315e-01         -0.8896
 526       1.453e+00       3.558e-01       2.562e-01           0.042          -0.056           0.998       2.386e-01         -0.7652
 527       1.782e+00       3.559e-01       2.320e-01           0.104          -0.059           0.993       2.328e-01         -0.6029
 528       2.093e+00       3.559e-01       1.912e-01           0.158          -0.061           0.986       2.139e-01         -0.4261
 529       2.366e+00       3.560e-01       1.400e-01           0.214          -0.061           0.975       1.828e-01         -0.2085
 530       2.586e+00       3.560e-01       8.938e-02           0.236          -0.061           0.970       1.395e-01          0.0016
 531       2.741e+00       3.561e-01       5.194e-02           0.234          -0.061           0.970       8.705e-02          0.1590
 532       2.820e+00       3.561e-01       3.126e-02           0.300          -0.058           0.952       3.016e-02          0.2947
Strip 21
 533       2.802e+00       1.066e+00       7.176e-02           0.143           0.073          -0.987       2.733e-02          0.1912
 534       2.727e+00       1.066e+00       6.607e-02           0.052           0.071          -0.996       7.967e-02          0.2001
 535       2.581e+00       1.066e+00       5.921e-02           0.044           0.071          -0.997       1.276e-01          0.1991
 536       2.372e+00       1.066e+00       4.935e-02           0.050           0.071          -0.996       1.682e-01          0.2011
 537       2.114e+00       1.066e+00       3.315e-02           0.073           0.071          -0.995       1.992e-01          0.1878
 538       1.820e+00       1.066e+00       1.224e-02           0.069           0.071          -0.995       2.184e-01          0.1660
 539       1.508e+00       1.066e+00      -5.859e-03           0.047           0.072          -0.996       2.247e-01          0.1671
 540       1.196e+00       1.066e+00      -1.574e-02           0.016           0.075          -0.997       2.180e-01          0.2080
 541       9.028e-01       1.066e+00      -1.738e-02          -0.006           0.078          -0.997       1.988e-01          0.2792
 542       6.443e-01       1.066e+00      -1.301e-02          -0.030           0.081          -0.996       1.682e-01          0.3780
 543       4.360e-01       1.066e+00      -2.239e-03          -0.080           0.089          -0.993       1.281e-01          0.5384
 544       2.900e-01       1.066e+00       1.815e-02          -0.228           0.112          -0.967       8.205e-02          0.8472
 545       2.148e-01       1.066e+00       5.293e-02          -0.737           0.181          -0.651       4.143e-02          0.5995
 546       2.148e-01       1.066e+00       1.032e-01          -0.827           0.114           0.550       4.910e-02         -2.8342
 547       2.900e-01       1.066e+00       1.590e-01          -0.434           0.020           0.901       8.813e-02         -2.4775
 548       4.360e-01       1.065e+00       2.089e-01          -0.246          -0.017           0.969       1.311e-01         -1.6423
 549       6.443e-01       1.065e+00       2.497e-01          -0.151          -0.033           0.988       1.695e-01         -1.2370
 550       9.028e-01       1.065e+00       2.799e-01          -0.085          -0.042           0.995       1.990e-01         -1.0292
 551       1.196e+00       1.065e+00       2.959e-01          -0.026          -0.049           0.998       2.175e-01         -0.9011
 552       1.508e+00       1.065e+00       2.933e-01           0.042          -0.056           0.998       2.242e-01         -0.7692
 553       1.820e+00       1.065e+00       2.704e-01           0.104          -0.059           0.993       2.187e-01         -0.6041
 554       2.114e+00       1.065e+00       2.319e-01           0.158          -0.061           0.986       2.010e-01         -0.4274
 555       2.372e+00       1.065e+00       1.834e-01           0.214          -0.061           0.975       1.718e-01         -0.2106
 556       2.581e+00       1.066e+00       1.355e-01           0.236          -0.061           0.970       1.311e-01         -0.0007
 557       2.727e+00       1.066e+00       1.001e-01           0.234          -0.061           0.970       8.179e-02          0.1576
 558       2.802e+00       1.066e+00       8.054e-02           0.300          -0.058           0.952       2.834e-02          0.2942
Strip 22
 559       2.784e+00       1.768e+00       1.210e-01           0.143           0.073          -0.987       2.543e-02          0.1918
 560       2.713e+00       1.768e+00       1.157e-01           0.052           0.071          -0.996       7.414e-02          0.2013
 561       2.575e+00       1.768e+00       1.092e-01           0.044           0.071          -0.997       1.187e-01          0.2012
 562       2.378e+00       1.768e+00       9.989e-02           0.050           0.071          -0.996       1.565e-01          0.2041
 563       2.135e+00       1.768e+00       8.462e-02           0.073           0.071          -0.995       1.854e-01          0.1920
 564       1.857e+00       1.769e+00       6.489e-02           0.069           0.071          -0.995       2.033e-01          0.1718
 565       1.563e+00       1.769e+00       4.781e-02           0.047           0.072          -0.996       2.091e-01          0.1749
 566       1.269e+00       1.769e+00       3.849e-02           0.016           0.075          -0.997       2.029e-01          0.2185
 567       9.919e-01       1.769e+00       3.695e-02          -0.006           0.078          -0.997       1.850e-01          0.2933
[...]
 852       1.886e+00       7.743e+00       4.996e-01           0.016           0.075          -0.997       4.471e-02          0.1947
 853       1.749e+00       7.743e+00       4.989e-01          -0.006           0.078          -0.997       4.077e-02          0.2778
 854       1.630e+00       7.743e+00       5.009e-01          -0.030           0.081          -0.996       3.448e-02          0.3935
 855       1.533e+00       7.743e+00       5.059e-01          -0.080           0.089          -0.993       2.625e-02          0.5751
 856       1.466e+00       7.742e+00       5.153e-01          -0.228           0.112          -0.967       1.679e-02          0.8859
 857       1.431e+00       7.742e+00       5.313e-01          -0.741           0.181          -0.647       8.460e-03          0.3751
 858       1.431e+00       7.740e+00       5.546e-01          -0.824           0.113           0.555       1.011e-02         -3.4351
 859       1.466e+00       7.739e+00       5.803e-01          -0.433           0.019           0.901       1.813e-02         -2.7740
 860       1.533e+00       7.738e+00       6.033e-01          -0.245          -0.017           0.969       2.694e-02         -1.7729
 861       1.630e+00       7.737e+00       6.222e-01          -0.151          -0.033           0.988       3.479e-02         -1.2944
 862       1.749e+00       7.736e+00       6.361e-01          -0.085          -0.042           0.995       4.082e-02         -1.0464
 863       1.886e+00       7.736e+00       6.435e-01          -0.026          -0.049           0.998       4.461e-02         -0.8944
 864       2.030e+00       7.736e+00       6.423e-01           0.042          -0.055           0.998       4.597e-02         -0.7508
 865       2.174e+00       7.736e+00       6.318e-01           0.104          -0.059           0.993       4.485e-02         -0.5842
 866       2.311e+00       7.737e+00       6.140e-01           0.158          -0.061           0.986       4.120e-02         -0.4132
 867       2.430e+00       7.738e+00       5.916e-01           0.214          -0.061           0.975       3.522e-02         -0.2060
 868       2.527e+00       7.740e+00       5.695e-01           0.236          -0.061           0.970       2.688e-02         -0.0055
 869       2.594e+00       7.740e+00       5.531e-01           0.234          -0.061           0.970       1.678e-02          0.1459
 870       2.629e+00       7.741e+00       5.441e-01           0.300          -0.058           0.952       5.813e-03          0.2785
Strip 34
 871       2.622e+00       8.027e+00       5.601e-01           0.143           0.073          -0.987       4.408e-03          0.1597
 872       2.589e+00       8.027e+00       5.576e-01           0.052           0.071          -0.996       1.285e-02          0.1642
 873       2.525e+00       8.028e+00       5.546e-01           0.044           0.071          -0.997       2.058e-02          0.1569
 874       2.433e+00       8.028e+00       5.503e-01           0.050           0.071          -0.996       2.713e-02          0.1534
 875       2.319e+00       8.028e+00       5.432e-01           0.073           0.071          -0.995       3.214e-02          0.1348
 876       2.190e+00       8.029e+00       5.340e-01           0.069           0.071          -0.995       3.524e-02          0.1087
 877       2.052e+00       8.029e+00       5.260e-01           0.047           0.072          -0.996       3.625e-02          0.1087
 878       1.915e+00       8.029e+00       5.217e-01           0.016           0.075          -0.997       3.517e-02          0.1540
 879       1.786e+00       8.029e+00       5.210e-01          -0.006           0.078          -0.997       3.207e-02          0.2349
 880       1.672e+00       8.029e+00       5.229e-01          -0.030           0.081          -0.996       2.712e-02          0.3483
 881       1.580e+00       8.029e+00       5.276e-01          -0.080           0.089          -0.993       2.064e-02          0.5275
 882       1.516e+00       8.029e+00       5.366e-01          -0.228           0.112          -0.967       1.321e-02          0.8500
 883       1.483e+00       8.028e+00       5.518e-01          -0.741           0.181          -0.646       6.652e-03          0.5000
 884       1.483e+00       8.026e+00       5.739e-01          -0.824           0.112           0.556       7.954e-03         -3.0640
 885       1.516e+00       8.025e+00       5.984e-01          -0.433           0.019           0.901       1.427e-02         -2.5656
 886       1.580e+00       8.024e+00       6.202e-01          -0.245          -0.017           0.969       2.120e-02         -1.6513
 887       1.672e+00       8.023e+00       6.382e-01          -0.151          -0.033           0.988       2.737e-02         -1.2037
 888       1.786e+00       8.022e+00       6.514e-01          -0.085          -0.042           0.995       3.211e-02         -0.9698
 889       1.915e+00       8.021e+00       6.584e-01          -0.026          -0.049           0.998       3.509e-02         -0.8275
 890       2.052e+00       8.022e+00       6.573e-01           0.042          -0.055           0.998       3.616e-02         -0.6947
 891       2.190e+00       8.022e+00       6.473e-01           0.104          -0.059           0.993       3.527e-02         -0.5417
 892       2.319e+00       8.023e+00       6.303e-01           0.158          -0.061           0.986       3.241e-02         -0.3856
 893       2.433e+00       8.024e+00       6.091e-01           0.214          -0.061           0.975       2.771e-02         -0.1937
 894       2.525e+00       8.026e+00       5.881e-01           0.236          -0.061           0.970       2.114e-02         -0.0061
 895       2.589e+00       8.026e+00       5.725e-01           0.234          -0.061           0.970       1.320e-02          0.1364
 896       2.622e+00       8.027e+00       5.640e-01           0.300          -0.058           0.952       4.573e-03          0.2644
Strip 35
 897       2.616e+00       8.258e+00       5.763e-01           0.143           0.073          -0.987       3.314e-03          0.1254
 898       2.584e+00       8.259e+00       5.739e-01           0.052           0.071          -0.996       9.662e-03          0.1268
 899       2.523e+00       8.259e+00       5.710e-01           0.044           0.071          -0.997       1.547e-02          0.1150
 900       2.435e+00       8.259e+00       5.669e-01           0.050           0.071          -0.996       2.040e-02          0.1081
 901       2.326e+00       8.259e+00       5.601e-01           0.073           0.071          -0.995       2.416e-02          0.0860
 902       2.202e+00       8.260e+00       5.513e-01           0.069           0.071          -0.995       2.649e-02          0.0564
 903       2.070e+00       8.260e+00       5.437e-01           0.047           0.072          -0.996       2.726e-02          0.0533
 904       1.939e+00       8.261e+00       5.396e-01           0.016           0.075          -0.997       2.644e-02          0.0951
 905       1.815e+00       8.261e+00       5.389e-01          -0.006           0.078          -0.997       2.411e-02          0.1719
 906       1.706e+00       8.261e+00       5.407e-01          -0.030           0.081          -0.996       2.039e-02          0.2808
 907       1.618e+00       8.260e+00       5.452e-01          -0.080           0.089          -0.993       1.552e-02          0.4554
 908       1.557e+00       8.260e+00       5.538e-01          -0.228           0.112          -0.967       9.928e-03          0.7888
 909       1.525e+00       8.259e+00       5.684e-01          -0.741           0.181          -0.646       4.999e-03          0.6395
 910       1.525e+00       8.258e+00       5.895e-01          -0.823           0.112           0.556       5.982e-03         -2.5981
 911       1.557e+00       8.256e+00       6.130e-01          -0.432           0.019           0.901       1.073e-02         -2.2969
 912       1.618e+00       8.255e+00       6.339e-01          -0.245          -0.017           0.969       1.594e-02         -1.4888
 913       1.706e+00       8.254e+00       6.511e-01          -0.151          -0.033           0.988       2.058e-02         -1.0794
 914       1.815e+00       8.253e+00       6.637e-01          -0.085          -0.042           0.995       2.414e-02         -0.8642
 915       1.939e+00       8.253e+00       6.705e-01          -0.026          -0.049           0.998       2.638e-02         -0.7367
 916       2.070e+00       8.253e+00       6.694e-01           0.042          -0.055           0.998       2.718e-02         -0.6212
 917       2.202e+00       8.253e+00       6.598e-01           0.104          -0.059           0.993       2.652e-02         -0.4894
 918       2.326e+00       8.254e+00       6.436e-01           0.158          -0.061           0.986       2.437e-02         -0.3568
 919       2.435e+00       8.256e+00       6.232e-01           0.214          -0.061           0.975       2.083e-02         -0.1898
 920       2.523e+00       8.257e+00       6.031e-01           0.236          -0.061           0.970       1.590e-02         -0.0233
 921       2.584e+00       8.258e+00       5.882e-01           0.234          -0.061           0.970       9.922e-03          0.1049
 922       2.616e+00       8.258e+00       5.800e-01           0.300          -0.058           0.952       3.438e-03          0.2259
Strip 36
 923       2.611e+00       8.433e+00       5.886e-01           0.143           0.073          -0.987       2.304e-03          0.0291
 924       2.581e+00       8.433e+00       5.863e-01           0.052           0.071          -0.996       6.717e-03          0.0280
 925       2.521e+00       8.434e+00       5.835e-01           0.044           0.071          -0.997       1.076e-02          0.0141
 926       2.436e+00       8.434e+00       5.795e-01           0.050           0.071          -0.996       1.418e-02          0.0093
 927       2.331e+00       8.434e+00       5.729e-01           0.073           0.071          -0.995       1.680e-02         -0.0074
 928       2.211e+00       8.435e+00       5.644e-01           0.069           0.071          -0.995       1.842e-02         -0.0302
 929       2.084e+00       8.435e+00       5.571e-01           0.047           0.072          -0.996       1.895e-02         -0.0283
 930       1.957e+00       8.436e+00       5.531e-01           0.016           0.075          -0.997       1.838e-02          0.0130
 931       1.837e+00       8.436e+00       5.524e-01          -0.006           0.078          -0.997       1.676e-02          0.0828
 932       1.732e+00       8.436e+00       5.542e-01          -0.030           0.081          -0.996       1.418e-02          0.1803
 933       1.647e+00       8.435e+00       5.585e-01          -0.080           0.089          -0.993       1.079e-02          0.3433
 934       1.587e+00       8.435e+00       5.668e-01          -0.228           0.112          -0.967       6.901e-03          0.6822
 935       1.557e+00       8.434e+00       5.809e-01          -0.742           0.181          -0.646       3.474e-03          0.7660
 936       1.557e+00       8.432e+00       6.014e-01          -0.823           0.112           0.556       4.160e-03         -2.0597
 937       1.587e+00       8.431e+00       6.240e-01          -0.432           0.019           0.902       7.462e-03         -1.9724
 938       1.647e+00       8.430e+00       6.442e-01          -0.245          -0.017           0.969       1.108e-02         -1.2820
 939       1.732e+00       8.429e+00       6.608e-01          -0.151          -0.033           0.988       1.431e-02         -0.9189
 940       1.837e+00       8.428e+00       6.731e-01          -0.085          -0.042           0.995       1.679e-02         -0.7333
 941       1.957e+00       8.427e+00       6.796e-01          -0.026          -0.049           0.998       1.834e-02         -0.6323
 942       2.084e+00       8.427e+00       6.785e-01           0.042          -0.055           0.998       1.890e-02         -0.5455
 943       2.211e+00       8.428e+00       6.692e-01           0.104          -0.059           0.993       1.844e-02         -0.4481
 944       2.331e+00       8.429e+00       6.536e-01           0.158          -0.061           0.986       1.694e-02         -0.3552
 945       2.436e+00       8.430e+00       6.339e-01           0.214          -0.061           0.975       1.448e-02         -0.2336
 946       2.521e+00       8.432e+00       6.145e-01           0.236          -0.061           0.970       1.105e-02         -0.1085
 947       2.581e+00       8.433e+00       6.001e-01           0.234          -0.061           0.970       6.898e-03         -0.0073
 948       2.611e+00       8.433e+00       5.921e-01           0.300          -0.058           0.952       2.390e-03          0.1023
Strip 37
 949       2.608e+00       8.550e+00       5.968e-01           0.143           0.073          -0.987       1.357e-03         -0.3979
 950       2.578e+00       8.551e+00       5.945e-01           0.052           0.071          -0.996       3.955e-03         -0.3768
 951       2.520e+00       8.551e+00       5.918e-01           0.044           0.071          -0.997       6.334e-03         -0.3279
 952       2.437e+00       8.551e+00       5.879e-01           0.050           0.071          -0.996       8.349e-03         -0.2525
 953       2.334e+00       8.552e+00       5.815e-01           0.073           0.071          -0.995       9.892e-03         -0.1983
 954       2.217e+00       8.552e+00       5.732e-01           0.069           0.071          -0.995       1.085e-02         -0.1712
 955       2.093e+00       8.553e+00       5.660e-01           0.047           0.072          -0.996       1.116e-02         -0.1402
 956       1.969e+00       8.553e+00       5.621e-01           0.016           0.075          -0.997       1.082e-02         -0.0905
 957       1.852e+00       8.553e+00       5.615e-01          -0.006           0.078          -0.997       9.871e-03         -0.0287
 958       1.749e+00       8.553e+00       5.632e-01          -0.030           0.081          -0.996       8.348e-03          0.0458
 959       1.666e+00       8.552e+00       5.675e-01          -0.080           0.089          -0.993       6.353e-03          0.1709
 960       1.608e+00       8.552e+00       5.755e-01          -0.228           0.112          -0.967       4.063e-03          0.4819
 961       1.578e+00       8.551e+00       5.893e-01          -0.742           0.181          -0.646       2.045e-03          0.8116
 962       1.578e+00       8.550e+00       6.093e-01          -0.823           0.112           0.557       2.450e-03         -1.4958
 963       1.608e+00       8.548e+00       6.314e-01          -0.432           0.019           0.902       4.394e-03         -1.5966
 964       1.666e+00       8.547e+00       6.512e-01          -0.245          -0.017           0.969       6.527e-03         -1.0273
 965       1.749e+00       8.546e+00       6.674e-01          -0.151          -0.033           0.988       8.425e-03         -0.7352
 966       1.852e+00       8.545e+00       6.793e-01          -0.085          -0.042           0.995       9.884e-03         -0.6032
 967       1.969e+00       8.544e+00       6.857e-01          -0.026          -0.049           0.998       1.080e-02         -0.5437
 968       2.093e+00       8.544e+00       6.846e-01           0.042          -0.055           0.998       1.113e-02         -0.4997
 969       2.217e+00       8.545e+00       6.756e-01           0.104          -0.059           0.993       1.086e-02         -0.4613
 970       2.334e+00       8.546e+00       6.603e-01           0.158          -0.061           0.986       9.974e-03         -0.4558
 971       2.437e+00       8.547e+00       6.411e-01           0.214          -0.061           0.975       8.527e-03         -0.4694
 972       2.520e+00       8.549e+00       6.221e-01           0.236          -0.061           0.970       6.508e-03         -0.5117
 973       2.578e+00       8.550e+00       6.080e-01           0.234          -0.061           0.970       4.062e-03         -0.5476
 974       2.608e+00       8.550e+00       6.003e-01           0.300          -0.058           0.952       1.407e-03         -0.4836
Strip 38
 975       2.607e+00       8.609e+00       6.009e-01           0.143           0.073          -0.987       4.478e-04         -1.0091
 976       2.577e+00       8.609e+00       5.987e-01           0.052           0.071          -0.996       1.306e-03         -0.9753
 977       2.520e+00       8.610e+00       5.960e-01           0.044           0.071          -0.997       2.091e-03         -0.8406
 978       2.438e+00       8.610e+00       5.922e-01           0.050           0.071          -0.996       2.756e-03         -0.6146
 979       2.336e+00       8.610e+00       5.858e-01           0.073           0.071          -0.995       3.266e-03         -0.4236
 980       2.221e+00       8.611e+00       5.776e-01           0.069           0.071          -0.995       3.581e-03         -0.3051
 981       2.098e+00       8.611e+00       5.705e-01           0.047           0.072          -0.996       3.684e-03         -0.2256
 982       1.975e+00       8.612e+00       5.667e-01           0.016           0.075          -0.997       3.573e-03         -0.1600
 983       1.860e+00       8.612e+00       5.660e-01          -0.006           0.078          -0.997       3.259e-03         -0.0998
 984       1.758e+00       8.612e+00       5.677e-01          -0.030           0.081          -0.996       2.756e-03         -0.0367
 985       1.676e+00       8.611e+00       5.719e-01          -0.080           0.089          -0.993       2.097e-03          0.0598
 986       1.618e+00       8.611e+00       5.799e-01          -0.228           0.112          -0.967       1.341e-03          0.3031
 987       1.589e+00       8.610e+00       5.936e-01          -0.742           0.181          -0.646       6.751e-04          0.7917
 988       1.589e+00       8.608e+00       6.133e-01          -0.823           0.112           0.557       8.089e-04         -0.9765
 989       1.618e+00       8.607e+00       6.351e-01          -0.432           0.019           0.902       1.451e-03         -1.2279
 990       1.676e+00       8.606e+00       6.546e-01          -0.245          -0.017           0.969       2.155e-03         -0.7968
 991       1.758e+00       8.604e+00       6.707e-01          -0.151          -0.033           0.988       2.782e-03         -0.5947
 992       1.860e+00       8.604e+00       6.825e-01          -0.085          -0.042           0.995       3.263e-03         -0.5141
 993       1.975e+00       8.603e+00       6.888e-01          -0.026          -0.049           0.998       3.565e-03         -0.4835
 994       2.098e+00       8.603e+00       6.877e-01           0.042          -0.055           0.998       3.674e-03         -0.4670
 995       2.221e+00       8.604e+00       6.788e-01           0.104          -0.059           0.993       3.584e-03         -0.4696
 996       2.336e+00       8.605e+00       6.636e-01           0.158          -0.061           0.986       3.293e-03         -0.5284
 997       2.438e+00       8.606e+00       6.447e-01           0.214          -0.061           0.975       2.815e-03         -0.6664
 998       2.520e+00       8.608e+00       6.259e-01           0.236          -0.061           0.970       2.148e-03         -0.9055
 999       2.577e+00       8.609e+00       6.120e-01           0.234          -0.061           0.970       1.341e-03         -1.1644
1000       2.607e+00       8.609e+00       6.044e-01           0.300          -0.058           0.952       4.646e-04         -1.1995










