xflr5 v6.61

 Calculated polar for: LOCKHEED L-188 TIP AIRFOIL

 1 1 Reynolds number fixed          Mach number fixed         

 xtrf =   1.000 (top)        1.000 (bottom)
 Mach =   0.000     Re =     8.500 e 6     Ncrit =   7.000

  alpha     CL        CD       CDp       Cm    Top Xtr Bot Xtr   Cpmin    Chinge    XCp    
 ------- -------- --------- --------- -------- ------- ------- -------- --------- ---------
  -5.000  -0.2127   0.00567   0.00139  -0.0792  0.7642  0.0188  -2.7525   0.0000   0.0000   0.0000  -0.1339
  -4.500  -0.1552   0.00555   0.00124  -0.0796  0.7491  0.0193  -2.3732   0.0000   0.0000   0.0000  -0.2770
  -4.000  -0.0975   0.00541   0.00110  -0.0801  0.7385  0.0241  -2.0180   0.0000   0.0000   0.0000  -0.5901
  -3.500  -0.0403   0.00528   0.00098  -0.0805  0.7187  0.0294  -1.6826   0.0000   0.0000   0.0000  -1.7866
  -3.000   0.0178   0.00517   0.00088  -0.0810  0.7122  0.0336  -1.3638   0.0000   0.0000   0.0000   4.8610
  -2.500   0.0751   0.00508   0.00079  -0.0814  0.6936  0.0424  -1.1227   0.0000   0.0000   0.0000   1.3472
  -2.000   0.1320   0.00503   0.00072  -0.0817  0.6675  0.0567  -0.9016   0.0000   0.0000   0.0000   0.8747
  -1.500   0.1880   0.00508   0.00069  -0.0819  0.6189  0.0718  -0.6955   0.0000   0.0000   0.0000   0.6881
  -0.500   0.2993   0.00523   0.00070  -0.0821  0.5317  0.1201  -0.5336   0.0000   0.0000   0.0000   0.5242
   0.500   0.4056   0.00559   0.00088  -0.0815  0.3875  0.2425  -0.5795   0.0000   0.0000   0.0000   0.4496
   1.000   0.4580   0.00574   0.00101  -0.0812  0.3135  0.3369  -0.6234   0.0000   0.0000   0.0000   0.4252
   1.500   0.5109   0.00580   0.00113  -0.0809  0.2613  0.4477  -0.7113   0.0000   0.0000   0.0000   0.4059
   2.000   0.5634   0.00599   0.00131  -0.0806  0.2018  0.5355  -0.8156   0.0000   0.0000   0.0000   0.3901
   2.500   0.6174   0.00619   0.00148  -0.0805  0.1610  0.5876  -0.9402   0.0000   0.0000   0.0000   0.3769
   3.000   0.6709   0.00637   0.00167  -0.0803  0.1301  0.6540  -1.0777   0.0000   0.0000   0.0000   0.3657
   3.500   0.7252   0.00652   0.00186  -0.0802  0.1098  0.7090  -1.2453   0.0000   0.0000   0.0000   0.3562
   4.000   0.7794   0.00681   0.00206  -0.0800  0.0893  0.7198  -1.4225   0.0000   0.0000   0.0000   0.3479
   4.500   0.8333   0.00708   0.00228  -0.0799  0.0723  0.7408  -1.6311   0.0000   0.0000   0.0000   0.3405
   5.000   0.8871   0.00737   0.00253  -0.0797  0.0583  0.7526  -1.8597   0.0000   0.0000   0.0000   0.3340
   5.500   0.9404   0.00765   0.00278  -0.0795  0.0511  0.7729  -2.0985   0.0000   0.0000   0.0000   0.3281
   6.000   0.9937   0.00794   0.00303  -0.0792  0.0421  0.7818  -2.3484   0.0000   0.0000   0.0000   0.3228
   6.500   1.0456   0.00828   0.00334  -0.0788  0.0352  0.8034  -2.6610   0.0000   0.0000   0.0000   0.3179
   7.000   1.0978   0.00856   0.00364  -0.0784  0.0295  0.8292  -2.9887   0.0000   0.0000   0.0000   0.3133
   7.500   1.1478   0.00857   0.00399  -0.0774  0.0283  0.9949  -3.3197   0.0000   0.0000   0.0000   0.3088
   8.000   1.1996   0.00904   0.00438  -0.0771  0.0233  1.0000  -3.6717   0.0000   0.0000   0.0000   0.3049
   8.500   1.2496   0.00942   0.00473  -0.0764  0.0192  1.0000  -4.0316   0.0000   0.0000   0.0000   0.3011
   9.000   1.2993   0.00980   0.00509  -0.0756  0.0188  1.0000  -4.4045   0.0000   0.0000   0.0000   0.2974
   9.500   1.3474   0.01025   0.00552  -0.0745  0.0175  1.0000  -4.7877   0.0000   0.0000   0.0000   0.2938
  10.000   1.3928   0.01082   0.00605  -0.0730  0.0145  1.0000  -5.1920   0.0000   0.0000   0.0000   0.2902
  10.500   1.4381   0.01134   0.00654  -0.0715  0.0117  1.0000  -5.6661   0.0000   0.0000   0.0000   0.2867
  11.000   1.4804   0.01183   0.00703  -0.0694  0.0109  1.0000  -6.1440   0.0000   0.0000   0.0000   0.2831
  11.500   1.5208   0.01235   0.00756  -0.0670  0.0108  1.0000  -6.6284   0.0000   0.0000   0.0000   0.2795
  12.000   1.5605   0.01293   0.00816  -0.0646  0.0107  1.0000  -7.1267   0.0000   0.0000   0.0000   0.2760
  12.500   1.5998   0.01357   0.00882  -0.0623  0.0106  1.0000  -7.6353   0.0000   0.0000   0.0000   0.2726
  13.000   1.6371   0.01427   0.00954  -0.0598  0.0105  1.0000  -8.1480   0.0000   0.0000   0.0000   0.2693
  13.500   1.6736   0.01507   0.01035  -0.0573  0.0103  1.0000  -8.6694   0.0000   0.0000   0.0000   0.2661
  14.000   1.7084   0.01598   0.01128  -0.0546  0.0098  1.0000  -9.1937   0.0000   0.0000   0.0000   0.2629
  14.500   1.7389   0.01708   0.01239  -0.0515  0.0088  1.0000  -9.7046   0.0000   0.0000   0.0000   0.2596
  15.000   1.7671   0.01838   0.01369  -0.0482  0.0078  1.0000  -10.2110   0.0000   0.0000   0.0000   0.2563
  15.500   1.7946   0.01976   0.01510  -0.0451  0.0069  1.0000  -10.7224   0.0000   0.0000   0.0000   0.2531
  16.000   1.8226   0.02117   0.01653  -0.0422  0.0057  1.0000  -11.2456   0.0000   0.0000   0.0000   0.2501
  16.500   1.8461   0.02273   0.01814  -0.0389  0.0049  1.0000  -11.7487   0.0000   0.0000   0.0000   0.2469
  17.000   1.8690   0.02447   0.01994  -0.0359  0.0048  1.0000  -12.2606   0.0000   0.0000   0.0000   0.2439
  17.500   1.8930   0.02626   0.02179  -0.0332  0.0048  1.0000  -12.7879   0.0000   0.0000   0.0000   0.2411
  18.000   1.9114   0.02850   0.02409  -0.0303  0.0048  1.0000  -13.2825   0.0000   0.0000   0.0000   0.2383
  18.500   1.9289   0.03092   0.02659  -0.0276  0.0048  1.0000  -13.7765   0.0000   0.0000   0.0000   0.2356
  19.000   1.9466   0.03342   0.02916  -0.0252  0.0048  1.0000  -14.2787   0.0000   0.0000   0.0000   0.2330
  19.500   1.9569   0.03651   0.03233  -0.0227  0.0047  1.0000  -14.7285   0.0000   0.0000   0.0000   0.2304
  20.000   1.9655   0.04005   0.03597  -0.0206  0.0047  1.0000  -15.2158   0.0000   0.0000   0.0000   0.2280
  20.500   1.9728   0.04401   0.04002  -0.0190  0.0047  1.0000  -15.7240   0.0000   0.0000   0.0000   0.2258
  21.000   1.9812   0.04799   0.04410  -0.0177  0.0047  1.0000  -16.2472   0.0000   0.0000   0.0000   0.2237
  21.500   1.9815   0.05306   0.04928  -0.0169  0.0047  1.0000  -16.6948   0.0000   0.0000   0.0000   0.2219
  22.000   1.9777   0.05877   0.05511  -0.0165  0.0047  1.0000  -17.1008   0.0000   0.0000   0.0000   0.2202
  22.500   1.9694   0.06515   0.06162  -0.0166  0.0046  1.0000  -17.4594   0.0000   0.0000   0.0000   0.2189
  23.000   1.9561   0.07225   0.06886  -0.0174  0.0046  1.0000  -17.7595   0.0000   0.0000   0.0000   0.2178
  23.500   1.9360   0.08011   0.07687  -0.0187  0.0046  1.0000  -17.9782   0.0000   0.0000   0.0000   0.2170
  24.000   1.9125   0.08911   0.08602  -0.0212  0.0046  1.0000  -18.1434   0.0000   0.0000   0.0000   0.2168
  24.500   1.8836   0.09922   0.09631  -0.0247  0.0046  1.0000  -18.2276   0.0000   0.0000   0.0000   0.2171
  25.000   1.8347   0.11282   0.11012  -0.0308  0.0046  1.0000  -18.0362   0.0000   0.0000   0.0000   0.2191
  25.500   1.7751   0.12840   0.12594  -0.0391  0.0046  1.0000  -17.6547   0.0000   0.0000   0.0000   0.2226
  26.000   1.6991   0.14717   0.14499  -0.0507  0.0046  1.0000  -16.9691   0.0000   0.0000   0.0000   0.2286
  27.000   1.4613   0.20653   0.20510  -0.0923  0.0046  1.0000  -13.7489   0.0000   0.0000   0.0000   0.2591
  27.500   1.3516   0.24462   0.24352  -0.1143  0.0046  1.0000  -11.8713   0.0000   0.0000   0.0000   0.2799
  28.000   1.2951   0.27192   0.27099  -0.1279  0.0046  1.0000  -10.8292   0.0000   0.0000   0.0000   0.2935
  29.000   1.2391   0.31137   0.31065  -0.1448  0.0045  1.0000  -9.7824   0.0000   0.0000   0.0000   0.3097


