xflr5 v6.61

 Calculated polar for: LOCKHEED L-188 TIP AIRFOIL

 1 1 Reynolds number fixed          Mach number fixed         

 xtrf =   1.000 (top)        1.000 (bottom)
 Mach =   0.000     Re =     7.350 e 6     Ncrit =   7.000

  alpha     CL        CD       CDp       Cm    Top Xtr Bot Xtr   Cpmin    Chinge    XCp    
 ------- -------- --------- --------- -------- ------- ------- -------- --------- ---------
  -5.000  -0.2118   0.00579   0.00144  -0.0794  0.7749  0.0189  -2.7475   0.0000   0.0000   0.0000  -0.1364
  -4.900  -0.2003   0.00576   0.00141  -0.0795  0.7728  0.0190  -2.6707   0.0000   0.0000   0.0000  -0.1587
  -4.800  -0.1888   0.00573   0.00138  -0.0795  0.7702  0.0191  -2.5946   0.0000   0.0000   0.0000  -0.1836
  -4.700  -0.1773   0.00571   0.00135  -0.0796  0.7674  0.0192  -2.5189   0.0000   0.0000   0.0000  -0.2117
  -4.600  -0.1659   0.00569   0.00132  -0.0797  0.7642  0.0193  -2.4436   0.0000   0.0000   0.0000  -0.2436
  -4.500  -0.1544   0.00567   0.00128  -0.0798  0.7608  0.0194  -2.3691   0.0000   0.0000   0.0000  -0.2803
  -4.400  -0.1430   0.00565   0.00125  -0.0798  0.7568  0.0202  -2.2971   0.0000   0.0000   0.0000  -0.3229
  -4.300  -0.1315   0.00562   0.00123  -0.0799  0.7524  0.0215  -2.2258   0.0000   0.0000   0.0000  -0.3730
  -4.200  -0.1200   0.00559   0.00119  -0.0800  0.7498  0.0230  -2.1550   0.0000   0.0000   0.0000  -0.4331
  -4.100  -0.1084   0.00555   0.00117  -0.0801  0.7489  0.0243  -2.0848   0.0000   0.0000   0.0000  -0.5062
  -4.000  -0.0969   0.00550   0.00114  -0.0802  0.7477  0.0257  -2.0154   0.0000   0.0000   0.0000  -0.5964
  -3.900  -0.0854   0.00546   0.00110  -0.0803  0.7462  0.0270  -1.9468   0.0000   0.0000   0.0000  -0.7106
  -3.800  -0.0739   0.00543   0.00108  -0.0804  0.7440  0.0282  -1.8788   0.0000   0.0000   0.0000  -0.8603
  -3.700  -0.0624   0.00540   0.00105  -0.0804  0.7410  0.0289  -1.8116   0.0000   0.0000   0.0000  -1.0647
  -3.600  -0.0510   0.00539   0.00103  -0.0805  0.7374  0.0294  -1.7452   0.0000   0.0000   0.0000  -1.3603
  -3.500  -0.0396   0.00538   0.00101  -0.0806  0.7335  0.0297  -1.6797   0.0000   0.0000   0.0000  -1.8256
  -3.400  -0.0281   0.00537   0.00099  -0.0807  0.7290  0.0300  -1.6149   0.0000   0.0000   0.0000  -2.6704
  -3.300  -0.0166   0.00536   0.00097  -0.0807  0.7240  0.0302  -1.5507   0.0000   0.0000   0.0000  -4.6898
  -3.200  -0.0051   0.00534   0.00095  -0.0808  0.7197  0.0318  -1.4873   0.0000   0.0000   0.0000  -15.8996
  -3.100   0.0065   0.00531   0.00093  -0.0809  0.7186  0.0339  -1.4245   0.0000   0.0000   0.0000  12.8548
  -3.000   0.0181   0.00528   0.00091  -0.0810  0.7177  0.0361  -1.3626   0.0000   0.0000   0.0000   4.7916
  -2.900   0.0297   0.00524   0.00088  -0.0811  0.7167  0.0382  -1.3068   0.0000   0.0000   0.0000   3.0245
  -2.800   0.0412   0.00521   0.00086  -0.0812  0.7155  0.0401  -1.2597   0.0000   0.0000   0.0000   2.2484
  -2.700   0.0528   0.00518   0.00084  -0.0813  0.7139  0.0417  -1.2130   0.0000   0.0000   0.0000   1.8116
  -2.600   0.0644   0.00516   0.00082  -0.0814  0.7118  0.0425  -1.1666   0.0000   0.0000   0.0000   1.5316
  -2.500   0.0759   0.00514   0.00081  -0.0815  0.7093  0.0431  -1.1208   0.0000   0.0000   0.0000   1.3371
  -2.400   0.0874   0.00513   0.00080  -0.0816  0.7060  0.0464  -1.0756   0.0000   0.0000   0.0000   1.1947
  -2.300   0.0986   0.00510   0.00078  -0.0817  0.7018  0.0530  -1.0311   0.0000   0.0000   0.0000   1.0869
  -2.200   0.1100   0.00510   0.00076  -0.0817  0.6960  0.0549  -0.9862   0.0000   0.0000   0.0000   1.0006
  -2.100   0.1214   0.00509   0.00075  -0.0818  0.6885  0.0569  -0.9428   0.0000   0.0000   0.0000   0.9303
  -2.000   0.1330   0.00507   0.00073  -0.0819  0.6860  0.0580  -0.8994   0.0000   0.0000   0.0000   0.8713
  -1.900   0.1445   0.00506   0.00072  -0.0820  0.6831  0.0599  -0.8566   0.0000   0.0000   0.0000   0.8220
  -1.800   0.1558   0.00506   0.00071  -0.0820  0.6761  0.0646  -0.8149   0.0000   0.0000   0.0000   0.7806
  -1.700   0.1667   0.00509   0.00071  -0.0820  0.6645  0.0689  -0.7744   0.0000   0.0000   0.0000   0.7455
  -1.600   0.1779   0.00508   0.00070  -0.0820  0.6537  0.0728  -0.7337   0.0000   0.0000   0.0000   0.7142
  -1.500   0.1893   0.00508   0.00069  -0.0821  0.6485  0.0750  -0.6930   0.0000   0.0000   0.0000   0.6863
  -1.400   0.2002   0.00513   0.00069  -0.0821  0.6363  0.0767  -0.6537   0.0000   0.0000   0.0000   0.6622
  -1.300   0.2111   0.00516   0.00070  -0.0820  0.6210  0.0829  -0.6148   0.0000   0.0000   0.0000   0.6405
  -1.200   0.2225   0.00513   0.00068  -0.0821  0.6175  0.0887  -0.5770   0.0000   0.0000   0.0000   0.6206
  -1.100   0.2336   0.00514   0.00068  -0.0821  0.6091  0.0931  -0.5468   0.0000   0.0000   0.0000   0.6028
  -1.000   0.2444   0.00520   0.00069  -0.0821  0.5955  0.0952  -0.5171   0.0000   0.0000   0.0000   0.5869
  -0.900   0.2557   0.00520   0.00069  -0.0821  0.5859  0.1017  -0.5125   0.0000   0.0000   0.0000   0.5720
  -0.800   0.2671   0.00518   0.00068  -0.0822  0.5825  0.1093  -0.5178   0.0000   0.0000   0.0000   0.5583
  -0.700   0.2782   0.00519   0.00068  -0.0822  0.5753  0.1149  -0.5233   0.0000   0.0000   0.0000   0.5459
  -0.600   0.2890   0.00522   0.00069  -0.0822  0.5642  0.1246  -0.5286   0.0000   0.0000   0.0000   0.5345
  -0.500   0.3000   0.00520   0.00070  -0.0822  0.5529  0.1386  -0.5340   0.0000   0.0000   0.0000   0.5240
  -0.400   0.3113   0.00516   0.00068  -0.0823  0.5498  0.1551  -0.5395   0.0000   0.0000   0.0000   0.5140
  -0.300   0.3224   0.00515   0.00069  -0.0823  0.5437  0.1677  -0.5451   0.0000   0.0000   0.0000   0.5049
  -0.100   0.3438   0.00519   0.00071  -0.0822  0.5170  0.1938  -0.5556   0.0000   0.0000   0.0000   0.4884
   0.000   0.3550   0.00518   0.00071  -0.0823  0.5120  0.2089  -0.5611   0.0000   0.0000   0.0000   0.4809
   0.100   0.3655   0.00522   0.00073  -0.0822  0.4991  0.2181  -0.5664   0.0000   0.0000   0.0000   0.4738
   0.200   0.3763   0.00527   0.00076  -0.0822  0.4831  0.2293  -0.5717   0.0000   0.0000   0.0000   0.4672
   0.300   0.3874   0.00524   0.00075  -0.0822  0.4773  0.2450  -0.5773   0.0000   0.0000   0.0000   0.4609
   0.400   0.3975   0.00535   0.00080  -0.0820  0.4578  0.2508  -0.5826   0.0000   0.0000   0.0000   0.4550
   0.600   0.4176   0.00541   0.00086  -0.0818  0.4179  0.3048  -0.5949   0.0000   0.0000   0.0000   0.4442
   0.800   0.4388   0.00544   0.00089  -0.0817  0.3954  0.3434  -0.5975   0.0000   0.0000   0.0000   0.4343
   0.900   0.4493   0.00549   0.00092  -0.0816  0.3774  0.3586  -0.6093   0.0000   0.0000   0.0000   0.4296
   1.000   0.4592   0.00555   0.00096  -0.0814  0.3598  0.3787  -0.6247   0.0000   0.0000   0.0000   0.4253
   1.200   0.4788   0.00562   0.00104  -0.0811  0.3185  0.4441  -0.6556   0.0000   0.0000   0.0000   0.4171
   1.300   0.4897   0.00561   0.00106  -0.0811  0.3090  0.4661  -0.6743   0.0000   0.0000   0.0000   0.4132
   1.400   0.5004   0.00564   0.00108  -0.0810  0.3004  0.4790  -0.6930   0.0000   0.0000   0.0000   0.4095
   1.500   0.5108   0.00569   0.00113  -0.0810  0.2871  0.4970  -0.7114   0.0000   0.0000   0.0000   0.4059
   1.600   0.5216   0.00569   0.00114  -0.0809  0.2778  0.5148  -0.7304   0.0000   0.0000   0.0000   0.4025
   1.700   0.5318   0.00579   0.00120  -0.0808  0.2626  0.5267  -0.7500   0.0000   0.0000   0.0000   0.3992
   1.900   0.5522   0.00594   0.00128  -0.0806  0.2302  0.5507  -0.7930   0.0000   0.0000   0.0000   0.3930
   2.000   0.5631   0.00597   0.00131  -0.0805  0.2190  0.5623  -0.8155   0.0000   0.0000   0.0000   0.3900
   2.100   0.5741   0.00597   0.00133  -0.0805  0.2154  0.5779  -0.8382   0.0000   0.0000   0.0000   0.3872
   2.200   0.5846   0.00604   0.00138  -0.0805  0.2062  0.5850  -0.8604   0.0000   0.0000   0.0000   0.3845
   2.300   0.5953   0.00610   0.00142  -0.0804  0.1953  0.5948  -0.8859   0.0000   0.0000   0.0000   0.3818
   2.400   0.6062   0.00610   0.00144  -0.0804  0.1895  0.6102  -0.9130   0.0000   0.0000   0.0000   0.3793
   2.500   0.6164   0.00619   0.00150  -0.0803  0.1782  0.6185  -0.9392   0.0000   0.0000   0.0000   0.3768
   2.600   0.6268   0.00628   0.00155  -0.0802  0.1621  0.6282  -0.9660   0.0000   0.0000   0.0000   0.3744
   2.700   0.6373   0.00630   0.00160  -0.0801  0.1562  0.6471  -0.9930   0.0000   0.0000   0.0000   0.3721
   2.800   0.6479   0.00637   0.00164  -0.0800  0.1488  0.6553  -1.0202   0.0000   0.0000   0.0000   0.3698
   2.900   0.6586   0.00638   0.00168  -0.0800  0.1409  0.6754  -1.0479   0.0000   0.0000   0.0000   0.3677
   3.000   0.6697   0.00639   0.00171  -0.0800  0.1388  0.6853  -1.0762   0.0000   0.0000   0.0000   0.3656
   3.100   0.6807   0.00643   0.00174  -0.0800  0.1361  0.6944  -1.1066   0.0000   0.0000   0.0000   0.3636
   3.200   0.6912   0.00648   0.00179  -0.0799  0.1303  0.7062  -1.1398   0.0000   0.0000   0.0000   0.3616
   3.300   0.7018   0.00654   0.00184  -0.0799  0.1240  0.7131  -1.1735   0.0000   0.0000   0.0000   0.3596
   3.400   0.7128   0.00658   0.00187  -0.0799  0.1173  0.7164  -1.2080   0.0000   0.0000   0.0000   0.3578
   3.500   0.7239   0.00662   0.00190  -0.0799  0.1157  0.7181  -1.2432   0.0000   0.0000   0.0000   0.3560
   3.600   0.7349   0.00667   0.00193  -0.0799  0.1133  0.7190  -1.2784   0.0000   0.0000   0.0000   0.3543
   3.700   0.7456   0.00674   0.00198  -0.0799  0.1092  0.7222  -1.3133   0.0000   0.0000   0.0000   0.3525
   3.800   0.7562   0.00681   0.00203  -0.0798  0.1043  0.7268  -1.3483   0.0000   0.0000   0.0000   0.3509
   3.900   0.7670   0.00686   0.00207  -0.0798  0.0987  0.7310  -1.3839   0.0000   0.0000   0.0000   0.3492
   4.000   0.7780   0.00690   0.00211  -0.0798  0.0948  0.7349  -1.4200   0.0000   0.0000   0.0000   0.3477
   4.100   0.7887   0.00696   0.00215  -0.0797  0.0914  0.7386  -1.4559   0.0000   0.0000   0.0000   0.3461
   4.200   0.7989   0.00706   0.00222  -0.0796  0.0850  0.7421  -1.4925   0.0000   0.0000   0.0000   0.3446
   4.300   0.8096   0.00712   0.00226  -0.0795  0.0802  0.7451  -1.5366   0.0000   0.0000   0.0000   0.3431
   4.400   0.8205   0.00717   0.00230  -0.0795  0.0762  0.7472  -1.5816   0.0000   0.0000   0.0000   0.3417
   4.500   0.8315   0.00721   0.00234  -0.0795  0.0753  0.7489  -1.6272   0.0000   0.0000   0.0000   0.3403
   4.600   0.8424   0.00726   0.00238  -0.0795  0.0739  0.7502  -1.6729   0.0000   0.0000   0.0000   0.3390
   4.700   0.8529   0.00734   0.00244  -0.0794  0.0706  0.7552  -1.7181   0.0000   0.0000   0.0000   0.3376
   4.800   0.8631   0.00743   0.00250  -0.0793  0.0658  0.7605  -1.7630   0.0000   0.0000   0.0000   0.3363
   4.900   0.8740   0.00746   0.00256  -0.0793  0.0654  0.7648  -1.8080   0.0000   0.0000   0.0000   0.3350
   5.000   0.8847   0.00752   0.00261  -0.0793  0.0617  0.7685  -1.8542   0.0000   0.0000   0.0000   0.3338
   5.100   0.8955   0.00756   0.00265  -0.0792  0.0586  0.7717  -1.9013   0.0000   0.0000   0.0000   0.3325
   5.200   0.9063   0.00761   0.00269  -0.0792  0.0581  0.7742  -1.9492   0.0000   0.0000   0.0000   0.3314
   5.300   0.9172   0.00765   0.00274  -0.0792  0.0574  0.7762  -1.9974   0.0000   0.0000   0.0000   0.3302
   5.400   0.9279   0.00771   0.00278  -0.0792  0.0564  0.7777  -2.0458   0.0000   0.0000   0.0000   0.3291
   5.500   0.9385   0.00778   0.00284  -0.0791  0.0547  0.7789  -2.0941   0.0000   0.0000   0.0000   0.3279
   5.600   0.9489   0.00786   0.00290  -0.0790  0.0525  0.7807  -2.1424   0.0000   0.0000   0.0000   0.3268
   5.700   0.9593   0.00793   0.00296  -0.0789  0.0503  0.7852  -2.1910   0.0000   0.0000   0.0000   0.3257
   5.800   0.9697   0.00800   0.00302  -0.0788  0.0476  0.7897  -2.2401   0.0000   0.0000   0.0000   0.3246
   5.900   0.9802   0.00806   0.00307  -0.0788  0.0442  0.7939  -2.2897   0.0000   0.0000   0.0000   0.3235
   6.000   0.9909   0.00810   0.00312  -0.0787  0.0429  0.7979  -2.3401   0.0000   0.0000   0.0000   0.3225
   6.100   1.0015   0.00816   0.00318  -0.0787  0.0424  0.8016  -2.4021   0.0000   0.0000   0.0000   0.3215
   6.200   1.0121   0.00821   0.00323  -0.0786  0.0418  0.8048  -2.4648   0.0000   0.0000   0.0000   0.3205
   6.300   1.0226   0.00827   0.00329  -0.0785  0.0409  0.8073  -2.5276   0.0000   0.0000   0.0000   0.3195
   6.400   1.0329   0.00835   0.00336  -0.0784  0.0396  0.8132  -2.5905   0.0000   0.0000   0.0000   0.3186
   6.500   1.0430   0.00842   0.00343  -0.0783  0.0380  0.8204  -2.6533   0.0000   0.0000   0.0000   0.3176
   6.600   1.0532   0.00849   0.00350  -0.0781  0.0365  0.8265  -2.7165   0.0000   0.0000   0.0000   0.3166
   6.700   1.0634   0.00856   0.00356  -0.0780  0.0346  0.8325  -2.7805   0.0000   0.0000   0.0000   0.3157
   6.800   1.0735   0.00861   0.00363  -0.0779  0.0326  0.8454  -2.8450   0.0000   0.0000   0.0000   0.3147
   6.900   1.0837   0.00864   0.00370  -0.0778  0.0306  0.8631  -2.9099   0.0000   0.0000   0.0000   0.3138
   7.000   1.0931   0.00861   0.00377  -0.0774  0.0300  0.9063  -2.9733   0.0000   0.0000   0.0000   0.3128
   7.100   1.1015   0.00852   0.00385  -0.0768  0.0301  0.9896  -3.0327   0.0000   0.0000   0.0000   0.3115
   7.200   1.1146   0.00858   0.00392  -0.0774  0.0299  0.9966  -3.1073   0.0000   0.0000   0.0000   0.3111
   7.300   1.1268   0.00865   0.00398  -0.0777  0.0297  1.0000  -3.1805   0.0000   0.0000   0.0000   0.3105
   7.400   1.1371   0.00872   0.00404  -0.0776  0.0295  1.0000  -3.2484   0.0000   0.0000   0.0000   0.3096
   7.500   1.1472   0.00879   0.00410  -0.0775  0.0291  1.0000  -3.3167   0.0000   0.0000   0.0000   0.3088
   7.600   1.1573   0.00886   0.00417  -0.0773  0.0287  1.0000  -3.3853   0.0000   0.0000   0.0000   0.3080
   7.700   1.1673   0.00895   0.00424  -0.0771  0.0280  1.0000  -3.4540   0.0000   0.0000   0.0000   0.3071
   7.800   1.1771   0.00904   0.00432  -0.0769  0.0271  1.0000  -3.5227   0.0000   0.0000   0.0000   0.3063
   7.900   1.1868   0.00914   0.00441  -0.0767  0.0261  1.0000  -3.5915   0.0000   0.0000   0.0000   0.3054
   8.000   1.1965   0.00924   0.00449  -0.0765  0.0251  1.0000  -3.6606   0.0000   0.0000   0.0000   0.3046
   8.100   1.2062   0.00933   0.00457  -0.0763  0.0240  1.0000  -3.7303   0.0000   0.0000   0.0000   0.3038
   8.200   1.2159   0.00943   0.00465  -0.0761  0.0228  1.0000  -3.8005   0.0000   0.0000   0.0000   0.3030
   8.300   1.2257   0.00952   0.00473  -0.0759  0.0213  1.0000  -3.8715   0.0000   0.0000   0.0000   0.3022
   8.400   1.2356   0.00960   0.00481  -0.0758  0.0199  1.0000  -3.9431   0.0000   0.0000   0.0000   0.3014
   8.500   1.2455   0.00968   0.00488  -0.0756  0.0193  1.0000  -4.0158   0.0000   0.0000   0.0000   0.3007
   8.600   1.2554   0.00975   0.00495  -0.0754  0.0193  1.0000  -4.0892   0.0000   0.0000   0.0000   0.2999
   8.700   1.2654   0.00983   0.00503  -0.0753  0.0192  1.0000  -4.1630   0.0000   0.0000   0.0000   0.2992
   8.800   1.2752   0.00990   0.00510  -0.0751  0.0192  1.0000  -4.2372   0.0000   0.0000   0.0000   0.2984
   8.900   1.2851   0.00998   0.00518  -0.0749  0.0191  1.0000  -4.3118   0.0000   0.0000   0.0000   0.2977
   9.000   1.2949   0.01006   0.00525  -0.0747  0.0190  1.0000  -4.3868   0.0000   0.0000   0.0000   0.2970
   9.100   1.3046   0.01014   0.00533  -0.0746  0.0189  1.0000  -4.4621   0.0000   0.0000   0.0000   0.2963
   9.200   1.3143   0.01022   0.00541  -0.0744  0.0188  1.0000  -4.5378   0.0000   0.0000   0.0000   0.2956
   9.300   1.3240   0.01031   0.00550  -0.0742  0.0187  1.0000  -4.6157   0.0000   0.0000   0.0000   0.2948
   9.400   1.3336   0.01040   0.00559  -0.0739  0.0185  1.0000  -4.6927   0.0000   0.0000   0.0000   0.2941
   9.500   1.3430   0.01049   0.00568  -0.0737  0.0183  1.0000  -4.7694   0.0000   0.0000   0.0000   0.2934
   9.600   1.3524   0.01059   0.00577  -0.0735  0.0179  1.0000  -4.8462   0.0000   0.0000   0.0000   0.2927
   9.700   1.3616   0.01069   0.00587  -0.0732  0.0175  1.0000  -4.9227   0.0000   0.0000   0.0000   0.2920
   9.800   1.3706   0.01081   0.00598  -0.0729  0.0169  1.0000  -4.9989   0.0000   0.0000   0.0000   0.2913
   9.900   1.3795   0.01093   0.00609  -0.0725  0.0163  1.0000  -5.0786   0.0000   0.0000   0.0000   0.2905
  10.000   1.3883   0.01106   0.00620  -0.0722  0.0157  1.0000  -5.1700   0.0000   0.0000   0.0000   0.2898
  10.100   1.3970   0.01118   0.00632  -0.0718  0.0151  1.0000  -5.2618   0.0000   0.0000   0.0000   0.2891
  10.200   1.4058   0.01130   0.00643  -0.0715  0.0146  1.0000  -5.3541   0.0000   0.0000   0.0000   0.2883
  10.300   1.4145   0.01142   0.00654  -0.0711  0.0140  1.0000  -5.4471   0.0000   0.0000   0.0000   0.2876
  10.400   1.4232   0.01153   0.00664  -0.0707  0.0134  1.0000  -5.5408   0.0000   0.0000   0.0000   0.2869
  10.500   1.4318   0.01163   0.00675  -0.0703  0.0128  1.0000  -5.6342   0.0000   0.0000   0.0000   0.2862
  10.600   1.4400   0.01174   0.00685  -0.0699  0.0122  1.0000  -5.7268   0.0000   0.0000   0.0000   0.2854
  10.700   1.4480   0.01184   0.00695  -0.0694  0.0117  1.0000  -5.8193   0.0000   0.0000   0.0000   0.2846
  10.800   1.4561   0.01195   0.00706  -0.0689  0.0113  1.0000  -5.9121   0.0000   0.0000   0.0000   0.2839
  10.900   1.4641   0.01206   0.00717  -0.0684  0.0109  1.0000  -6.0053   0.0000   0.0000   0.0000   0.2831
  11.000   1.4722   0.01216   0.00727  -0.0679  0.0109  1.0000  -6.1001   0.0000   0.0000   0.0000   0.2823
  11.100   1.4803   0.01227   0.00738  -0.0674  0.0109  1.0000  -6.1955   0.0000   0.0000   0.0000   0.2816
  11.200   1.4884   0.01238   0.00749  -0.0669  0.0109  1.0000  -6.2917   0.0000   0.0000   0.0000   0.2809
  11.300   1.4964   0.01249   0.00761  -0.0665  0.0109  1.0000  -6.3881   0.0000   0.0000   0.0000   0.2802
  11.400   1.5044   0.01260   0.00772  -0.0660  0.0108  1.0000  -6.4847   0.0000   0.0000   0.0000   0.2794
  11.500   1.5123   0.01272   0.00784  -0.0655  0.0108  1.0000  -6.5817   0.0000   0.0000   0.0000   0.2787
  11.700   1.5283   0.01295   0.00809  -0.0646  0.0108  1.0000  -6.7797   0.0000   0.0000   0.0000   0.2773
  11.800   1.5362   0.01308   0.00821  -0.0641  0.0108  1.0000  -6.8788   0.0000   0.0000   0.0000   0.2766
  11.900   1.5441   0.01320   0.00834  -0.0636  0.0108  1.0000  -6.9780   0.0000   0.0000   0.0000   0.2760
  12.000   1.5520   0.01333   0.00847  -0.0631  0.0107  1.0000  -7.0777   0.0000   0.0000   0.0000   0.2753
  12.100   1.5598   0.01346   0.00861  -0.0627  0.0107  1.0000  -7.1780   0.0000   0.0000   0.0000   0.2746
  12.200   1.5677   0.01359   0.00874  -0.0622  0.0107  1.0000  -7.2790   0.0000   0.0000   0.0000   0.2739
  12.300   1.5755   0.01373   0.00888  -0.0618  0.0107  1.0000  -7.3802   0.0000   0.0000   0.0000   0.2733
  12.400   1.5831   0.01386   0.00902  -0.0613  0.0107  1.0000  -7.4806   0.0000   0.0000   0.0000   0.2726
  12.500   1.5906   0.01400   0.00916  -0.0608  0.0107  1.0000  -7.5809   0.0000   0.0000   0.0000   0.2719
  12.600   1.5980   0.01414   0.00931  -0.0603  0.0106  1.0000  -7.6819   0.0000   0.0000   0.0000   0.2712
  12.700   1.6055   0.01429   0.00946  -0.0598  0.0106  1.0000  -7.7836   0.0000   0.0000   0.0000   0.2706
  12.800   1.6131   0.01443   0.00961  -0.0593  0.0106  1.0000  -7.8862   0.0000   0.0000   0.0000   0.2699
  12.900   1.6206   0.01458   0.00976  -0.0588  0.0106  1.0000  -7.9892   0.0000   0.0000   0.0000   0.2693
  13.000   1.6279   0.01474   0.00992  -0.0583  0.0105  1.0000  -8.0916   0.0000   0.0000   0.0000   0.2686
  13.100   1.6352   0.01490   0.01009  -0.0578  0.0105  1.0000  -8.1940   0.0000   0.0000   0.0000   0.2680
  13.200   1.6424   0.01506   0.01025  -0.0573  0.0105  1.0000  -8.2971   0.0000   0.0000   0.0000   0.2673
  13.300   1.6497   0.01523   0.01042  -0.0568  0.0105  1.0000  -8.4011   0.0000   0.0000   0.0000   0.2667
  13.400   1.6571   0.01539   0.01059  -0.0563  0.0104  1.0000  -8.5057   0.0000   0.0000   0.0000   0.2661
  13.500   1.6644   0.01556   0.01076  -0.0558  0.0104  1.0000  -8.6110   0.0000   0.0000   0.0000   0.2654
  13.600   1.6716   0.01573   0.01094  -0.0553  0.0103  1.0000  -8.7160   0.0000   0.0000   0.0000   0.2648
  13.700   1.6785   0.01591   0.01113  -0.0548  0.0103  1.0000  -8.8198   0.0000   0.0000   0.0000   0.2642
  13.800   1.6853   0.01610   0.01133  -0.0543  0.0103  1.0000  -8.9233   0.0000   0.0000   0.0000   0.2635
  13.900   1.6920   0.01629   0.01152  -0.0537  0.0102  1.0000  -9.0272   0.0000   0.0000   0.0000   0.2629
  14.000   1.6987   0.01648   0.01171  -0.0532  0.0101  1.0000  -9.1311   0.0000   0.0000   0.0000   0.2622
  14.100   1.7052   0.01668   0.01192  -0.0526  0.0100  1.0000  -9.2333   0.0000   0.0000   0.0000   0.2616
  14.200   1.7117   0.01687   0.01212  -0.0520  0.0099  1.0000  -9.3376   0.0000   0.0000   0.0000   0.2610
  14.300   1.7182   0.01708   0.01233  -0.0515  0.0098  1.0000  -9.4419   0.0000   0.0000   0.0000   0.2603
  14.400   1.7242   0.01731   0.01257  -0.0508  0.0097  1.0000  -9.5437   0.0000   0.0000   0.0000   0.2597
  14.500   1.7300   0.01755   0.01281  -0.0502  0.0095  1.0000  -9.6446   0.0000   0.0000   0.0000   0.2590
  14.600   1.7358   0.01780   0.01306  -0.0496  0.0094  1.0000  -9.7464   0.0000   0.0000   0.0000   0.2583
  14.700   1.7417   0.01805   0.01332  -0.0490  0.0092  1.0000  -9.8489   0.0000   0.0000   0.0000   0.2577
  14.800   1.7476   0.01831   0.01357  -0.0484  0.0090  1.0000  -9.9518   0.0000   0.0000   0.0000   0.2571
  14.900   1.7535   0.01857   0.01384  -0.0478  0.0088  1.0000  -10.0549   0.0000   0.0000   0.0000   0.2564
  15.000   1.7593   0.01884   0.01410  -0.0472  0.0086  1.0000  -10.1578   0.0000   0.0000   0.0000   0.2558
  15.100   1.7645   0.01913   0.01440  -0.0465  0.0084  1.0000  -10.2572   0.0000   0.0000   0.0000   0.2551
  15.200   1.7694   0.01944   0.01472  -0.0458  0.0082  1.0000  -10.3549   0.0000   0.0000   0.0000   0.2545
  15.300   1.7745   0.01974   0.01502  -0.0451  0.0080  1.0000  -10.4544   0.0000   0.0000   0.0000   0.2538
  15.400   1.7798   0.02004   0.01532  -0.0445  0.0078  1.0000  -10.5554   0.0000   0.0000   0.0000   0.2532
  15.500   1.7852   0.02034   0.01562  -0.0439  0.0076  1.0000  -10.6576   0.0000   0.0000   0.0000   0.2526
  15.600   1.7907   0.02063   0.01592  -0.0433  0.0074  1.0000  -10.7606   0.0000   0.0000   0.0000   0.2519
  15.700   1.7962   0.02092   0.01621  -0.0427  0.0072  1.0000  -10.8642   0.0000   0.0000   0.0000   0.2513
  15.800   1.8014   0.02123   0.01653  -0.0421  0.0070  1.0000  -10.9657   0.0000   0.0000   0.0000   0.2507
  15.900   1.8057   0.02158   0.01688  -0.0414  0.0068  1.0000  -11.0621   0.0000   0.0000   0.0000   0.2501
  16.000   1.8100   0.02192   0.01723  -0.0407  0.0066  1.0000  -11.1586   0.0000   0.0000   0.0000   0.2494
  16.100   1.8145   0.02224   0.01756  -0.0400  0.0064  1.0000  -11.2563   0.0000   0.0000   0.0000   0.2488
  16.200   1.8192   0.02256   0.01789  -0.0393  0.0061  1.0000  -11.3558   0.0000   0.0000   0.0000   0.2481
  16.300   1.8240   0.02287   0.01821  -0.0387  0.0058  1.0000  -11.4568   0.0000   0.0000   0.0000   0.2475
  16.400   1.8290   0.02319   0.01854  -0.0381  0.0055  1.0000  -11.5587   0.0000   0.0000   0.0000   0.2469
  16.500   1.8340   0.02352   0.01887  -0.0375  0.0053  1.0000  -11.6611   0.0000   0.0000   0.0000   0.2463
  16.600   1.8381   0.02389   0.01926  -0.0369  0.0051  1.0000  -11.7575   0.0000   0.0000   0.0000   0.2457
  16.700   1.8416   0.02431   0.01969  -0.0361  0.0049  1.0000  -11.8497   0.0000   0.0000   0.0000   0.2450
  16.800   1.8459   0.02469   0.02009  -0.0355  0.0049  1.0000  -11.9497   0.0000   0.0000   0.0000   0.2444
  16.900   1.8506   0.02506   0.02047  -0.0350  0.0049  1.0000  -12.0524   0.0000   0.0000   0.0000   0.2439
  17.000   1.8554   0.02541   0.02084  -0.0344  0.0049  1.0000  -12.1564   0.0000   0.0000   0.0000   0.2433
  17.100   1.8603   0.02577   0.02120  -0.0339  0.0048  1.0000  -12.2611   0.0000   0.0000   0.0000   0.2428
  17.200   1.8651   0.02613   0.02158  -0.0334  0.0048  1.0000  -12.3661   0.0000   0.0000   0.0000   0.2422
  17.300   1.8699   0.02650   0.02196  -0.0328  0.0048  1.0000  -12.4709   0.0000   0.0000   0.0000   0.2416
  17.400   1.8738   0.02693   0.02240  -0.0323  0.0048  1.0000  -12.5696   0.0000   0.0000   0.0000   0.2411
  17.500   1.8766   0.02743   0.02292  -0.0316  0.0048  1.0000  -12.6605   0.0000   0.0000   0.0000   0.2405
  17.600   1.8801   0.02789   0.02339  -0.0310  0.0048  1.0000  -12.7572   0.0000   0.0000   0.0000   0.2399
  17.700   1.8842   0.02832   0.02384  -0.0305  0.0048  1.0000  -12.8576   0.0000   0.0000   0.0000   0.2393
  17.800   1.8884   0.02875   0.02427  -0.0299  0.0048  1.0000  -12.9597   0.0000   0.0000   0.0000   0.2388
  17.900   1.8926   0.02917   0.02471  -0.0294  0.0048  1.0000  -13.0624   0.0000   0.0000   0.0000   0.2383
  18.000   1.8969   0.02960   0.02515  -0.0289  0.0048  1.0000  -13.1655   0.0000   0.0000   0.0000   0.2377
  18.100   1.9009   0.03004   0.02561  -0.0284  0.0048  1.0000  -13.2673   0.0000   0.0000   0.0000   0.2372
  18.200   1.9031   0.03063   0.02622  -0.0278  0.0048  1.0000  -13.3553   0.0000   0.0000   0.0000   0.2366
  18.300   1.9055   0.03121   0.02681  -0.0273  0.0048  1.0000  -13.4455   0.0000   0.0000   0.0000   0.2361
  18.400   1.9088   0.03173   0.02735  -0.0268  0.0048  1.0000  -13.5423   0.0000   0.0000   0.0000   0.2355
  18.500   1.9124   0.03223   0.02786  -0.0263  0.0048  1.0000  -13.6414   0.0000   0.0000   0.0000   0.2350
  18.600   1.9161   0.03272   0.02837  -0.0258  0.0048  1.0000  -13.7416   0.0000   0.0000   0.0000   0.2345
  18.700   1.9198   0.03322   0.02888  -0.0254  0.0048  1.0000  -13.8420   0.0000   0.0000   0.0000   0.2340
  18.800   1.9233   0.03373   0.02941  -0.0249  0.0048  1.0000  -13.9416   0.0000   0.0000   0.0000   0.2335
  18.900   1.9245   0.03444   0.03014  -0.0244  0.0048  1.0000  -14.0235   0.0000   0.0000   0.0000   0.2330
  19.000   1.9259   0.03511   0.03083  -0.0239  0.0048  1.0000  -14.1067   0.0000   0.0000   0.0000   0.2324
  19.100   1.9281   0.03570   0.03144  -0.0233  0.0048  1.0000  -14.1968   0.0000   0.0000   0.0000   0.2319
  19.200   1.9307   0.03627   0.03202  -0.0229  0.0048  1.0000  -14.2902   0.0000   0.0000   0.0000   0.2314
  19.300   1.9336   0.03683   0.03260  -0.0224  0.0048  1.0000  -14.3854   0.0000   0.0000   0.0000   0.2309
  19.400   1.9364   0.03741   0.03319  -0.0220  0.0048  1.0000  -14.4811   0.0000   0.0000   0.0000   0.2304
  19.500   1.9387   0.03806   0.03386  -0.0216  0.0048  1.0000  -14.5719   0.0000   0.0000   0.0000   0.2299
  19.600   1.9383   0.03898   0.03480  -0.0211  0.0047  1.0000  -14.6417   0.0000   0.0000   0.0000   0.2294
  19.700   1.9399   0.03973   0.03558  -0.0207  0.0047  1.0000  -14.7271   0.0000   0.0000   0.0000   0.2289
  19.800   1.9421   0.04042   0.03629  -0.0204  0.0047  1.0000  -14.8207   0.0000   0.0000   0.0000   0.2285
  19.900   1.9445   0.04109   0.03698  -0.0200  0.0047  1.0000  -14.9297   0.0000   0.0000   0.0000   0.2280
  20.000   1.9470   0.04177   0.03768  -0.0197  0.0047  1.0000  -15.0391   0.0000   0.0000   0.0000   0.2276
  20.100   1.9494   0.04246   0.03838  -0.0194  0.0047  1.0000  -15.1478   0.0000   0.0000   0.0000   0.2272
  20.200   1.9488   0.04348   0.03943  -0.0190  0.0047  1.0000  -15.2299   0.0000   0.0000   0.0000   0.2267
  20.300   1.9489   0.04446   0.04044  -0.0188  0.0047  1.0000  -15.3169   0.0000   0.0000   0.0000   0.2263
  20.400   1.9503   0.04529   0.04128  -0.0185  0.0047  1.0000  -15.4172   0.0000   0.0000   0.0000   0.2259
  20.500   1.9521   0.04607   0.04208  -0.0182  0.0047  1.0000  -15.5212   0.0000   0.0000   0.0000   0.2255
  20.600   1.9540   0.04685   0.04288  -0.0180  0.0047  1.0000  -15.6265   0.0000   0.0000   0.0000   0.2251
  20.700   1.9558   0.04764   0.04369  -0.0177  0.0047  1.0000  -15.7315   0.0000   0.0000   0.0000   0.2247
  20.800   1.9555   0.04869   0.04477  -0.0175  0.0047  1.0000  -15.8156   0.0000   0.0000   0.0000   0.2243
  20.900   1.9535   0.04995   0.04605  -0.0174  0.0047  1.0000  -15.8842   0.0000   0.0000   0.0000   0.2239
  21.000   1.9541   0.05091   0.04703  -0.0172  0.0047  1.0000  -15.9767   0.0000   0.0000   0.0000   0.2235
  21.100   1.9552   0.05181   0.04795  -0.0170  0.0047  1.0000  -16.0754   0.0000   0.0000   0.0000   0.2232
  21.200   1.9564   0.05269   0.04886  -0.0168  0.0047  1.0000  -16.1749   0.0000   0.0000   0.0000   0.2228
  21.300   1.9575   0.05359   0.04978  -0.0167  0.0047  1.0000  -16.2732   0.0000   0.0000   0.0000   0.2224
  21.400   1.9556   0.05487   0.05109  -0.0166  0.0047  1.0000  -16.3419   0.0000   0.0000   0.0000   0.2221
  21.500   1.9527   0.05630   0.05254  -0.0166  0.0047  1.0000  -16.4007   0.0000   0.0000   0.0000   0.2218
  21.600   1.9527   0.05736   0.05363  -0.0165  0.0047  1.0000  -16.4877   0.0000   0.0000   0.0000   0.2215
  21.700   1.9531   0.05837   0.05465  -0.0164  0.0047  1.0000  -16.5792   0.0000   0.0000   0.0000   0.2212
  21.800   1.9535   0.05937   0.05567  -0.0163  0.0047  1.0000  -16.6708   0.0000   0.0000   0.0000   0.2208
  21.900   1.9537   0.06039   0.05672  -0.0163  0.0047  1.0000  -16.7603   0.0000   0.0000   0.0000   0.2205
  22.000   1.9480   0.06222   0.05859  -0.0165  0.0047  1.0000  -16.7898   0.0000   0.0000   0.0000   0.2203
  22.100   1.9460   0.06357   0.05996  -0.0165  0.0047  1.0000  -16.8563   0.0000   0.0000   0.0000   0.2201
  22.200   1.9454   0.06471   0.06113  -0.0166  0.0047  1.0000  -16.9372   0.0000   0.0000   0.0000   0.2198
  22.300   1.9450   0.06583   0.06227  -0.0166  0.0047  1.0000  -17.0202   0.0000   0.0000   0.0000   0.2195
  22.400   1.9444   0.06696   0.06343  -0.0166  0.0047  1.0000  -17.1020   0.0000   0.0000   0.0000   0.2192
  22.500   1.9397   0.06871   0.06521  -0.0169  0.0047  1.0000  -17.1384   0.0000   0.0000   0.0000   0.2191
  22.600   1.9345   0.07051   0.06705  -0.0172  0.0047  1.0000  -17.1709   0.0000   0.0000   0.0000   0.2189
  22.700   1.9328   0.07181   0.06837  -0.0173  0.0047  1.0000  -17.2388   0.0000   0.0000   0.0000   0.2187
  22.800   1.9310   0.07302   0.06960  -0.0174  0.0047  1.0000  -17.3077   0.0000   0.0000   0.0000   0.2185
  22.900   1.9292   0.07423   0.07085  -0.0175  0.0047  1.0000  -17.3755   0.0000   0.0000   0.0000   0.2182
  23.000   1.9206   0.07644   0.07309  -0.0180  0.0046  1.0000  -17.3689   0.0000   0.0000   0.0000   0.2182
  23.100   1.9152   0.07825   0.07494  -0.0184  0.0046  1.0000  -17.3961   0.0000   0.0000   0.0000   0.2181
  23.200   1.9128   0.07966   0.07638  -0.0186  0.0046  1.0000  -17.4554   0.0000   0.0000   0.0000   0.2179
  23.300   1.9107   0.08104   0.07778  -0.0189  0.0046  1.0000  -17.5185   0.0000   0.0000   0.0000   0.2178
  23.400   1.9084   0.08248   0.07925  -0.0192  0.0046  1.0000  -17.5779   0.0000   0.0000   0.0000   0.2176
  23.500   1.8960   0.08544   0.08226  -0.0202  0.0046  1.0000  -17.5241   0.0000   0.0000   0.0000   0.2179
  23.600   1.8923   0.08712   0.08398  -0.0206  0.0046  1.0000  -17.5669   0.0000   0.0000   0.0000   0.2178
  23.700   1.8896   0.08867   0.08555  -0.0210  0.0046  1.0000  -17.6199   0.0000   0.0000   0.0000   0.2177
  23.800   1.8866   0.09024   0.08715  -0.0215  0.0046  1.0000  -17.6705   0.0000   0.0000   0.0000   0.2177
  23.900   1.8734   0.09343   0.09039  -0.0227  0.0046  1.0000  -17.6015   0.0000   0.0000   0.0000   0.2181
  24.000   1.8684   0.09538   0.09237  -0.0234  0.0046  1.0000  -17.6258   0.0000   0.0000   0.0000   0.2181
  24.100   1.8648   0.09708   0.09411  -0.0240  0.0046  1.0000  -17.6664   0.0000   0.0000   0.0000   0.2181
  24.200   1.8609   0.09882   0.09588  -0.0246  0.0046  1.0000  -17.7037   0.0000   0.0000   0.0000   0.2182
  24.300   1.8456   0.10245   0.09957  -0.0262  0.0046  1.0000  -17.6013   0.0000   0.0000   0.0000   0.2188
  24.400   1.8403   0.10446   0.10160  -0.0270  0.0046  1.0000  -17.6189   0.0000   0.0000   0.0000   0.2189
  24.500   1.8357   0.10634   0.10352  -0.0278  0.0046  1.0000  -17.6443   0.0000   0.0000   0.0000   0.2191
  24.600   1.8198   0.11009   0.10733  -0.0296  0.0046  1.0000  -17.5289   0.0000   0.0000   0.0000   0.2198
  24.700   1.8127   0.11242   0.10970  -0.0307  0.0046  1.0000  -17.5196   0.0000   0.0000   0.0000   0.2202
  24.800   1.8073   0.11446   0.11176  -0.0316  0.0046  1.0000  -17.5307   0.0000   0.0000   0.0000   0.2204
  24.900   1.7892   0.11863   0.11600  -0.0338  0.0046  1.0000  -17.3782   0.0000   0.0000   0.0000   0.2215
  25.000   1.7815   0.12107   0.11848  -0.0351  0.0046  1.0000  -17.3564   0.0000   0.0000   0.0000   0.2219


