xflr5 v6.61

 Calculated polar for: LOCKHEED L-188 TIP AIRFOIL

 1 1 Reynolds number fixed          Mach number fixed         

 xtrf =   1.000 (top)        1.000 (bottom)
 Mach =   0.000     Re =    18.000 e 6     Ncrit =   9.000

  alpha     CL        CD       CDp       Cm    Top Xtr Bot Xtr   Cpmin    Chinge    XCp    
 ------- -------- --------- --------- -------- ------- ------- -------- --------- ---------
  -5.000  -0.2157   0.00502   0.00117  -0.0788  0.7404  0.0186  -2.7683   0.0000   0.0000   0.0000  -0.1267
  -4.500  -0.1579   0.00493   0.00104  -0.0793  0.7223  0.0192  -2.3878   0.0000   0.0000   0.0000  -0.2655
  -4.000  -0.0996   0.00481   0.00093  -0.0798  0.7152  0.0209  -2.0282   0.0000   0.0000   0.0000  -0.5700
  -3.500  -0.0423   0.00474   0.00084  -0.0802  0.6867  0.0278  -1.6921   0.0000   0.0000   0.0000  -1.6848
  -3.000   0.0150   0.00473   0.00077  -0.0806  0.6532  0.0301  -1.3746   0.0000   0.0000   0.0000   5.7106
  -2.500   0.0720   0.00474   0.00071  -0.0809  0.6170  0.0394  -1.1301   0.0000   0.0000   0.0000   1.3883
  -2.000   0.1288   0.00476   0.00067  -0.0813  0.5801  0.0504  -0.9089   0.0000   0.0000   0.0000   0.8865
  -1.500   0.1855   0.00481   0.00065  -0.0815  0.5415  0.0613  -0.7012   0.0000   0.0000   0.0000   0.6924
  -1.000   0.2415   0.00490   0.00067  -0.0817  0.4954  0.0772  -0.5209   0.0000   0.0000   0.0000   0.5894
  -0.500   0.2974   0.00501   0.00069  -0.0819  0.4439  0.1000  -0.5327   0.0000   0.0000   0.0000   0.5253
   0.000   0.3514   0.00521   0.00077  -0.0818  0.3710  0.1429  -0.5524   0.0000   0.0000   0.0000   0.4818
   0.500   0.4056   0.00538   0.00086  -0.0817  0.3046  0.2002  -0.5846   0.0000   0.0000   0.0000   0.4498
   1.000   0.4603   0.00551   0.00096  -0.0817  0.2523  0.2612  -0.6247   0.0000   0.0000   0.0000   0.4254
   1.500   0.5144   0.00562   0.00107  -0.0816  0.2042  0.3383  -0.7141   0.0000   0.0000   0.0000   0.4061
   2.000   0.5688   0.00564   0.00118  -0.0816  0.1631  0.4415  -0.8210   0.0000   0.0000   0.0000   0.3904
   2.500   0.6238   0.00571   0.00130  -0.0817  0.1371  0.5145  -0.9483   0.0000   0.0000   0.0000   0.3775
   3.000   0.6791   0.00585   0.00145  -0.0818  0.1149  0.5648  -1.0883   0.0000   0.0000   0.0000   0.3665
   3.500   0.7340   0.00598   0.00161  -0.0818  0.0948  0.6153  -1.2599   0.0000   0.0000   0.0000   0.3571
   4.000   0.7880   0.00621   0.00181  -0.0817  0.0722  0.6613  -1.4370   0.0000   0.0000   0.0000   0.3488
   4.500   0.8426   0.00638   0.00200  -0.0816  0.0580  0.7100  -1.6505   0.0000   0.0000   0.0000   0.3416
   5.000   0.8978   0.00656   0.00219  -0.0817  0.0550  0.7302  -1.8844   0.0000   0.0000   0.0000   0.3352
   5.500   0.9519   0.00682   0.00241  -0.0816  0.0429  0.7466  -2.1260   0.0000   0.0000   0.0000   0.3294
   6.000   1.0052   0.00715   0.00267  -0.0814  0.0348  0.7582  -2.3821   0.0000   0.0000   0.0000   0.3241
   6.500   1.0593   0.00736   0.00289  -0.0813  0.0298  0.7772  -2.7035   0.0000   0.0000   0.0000   0.3193
   7.000   1.1126   0.00764   0.00315  -0.0811  0.0275  0.7916  -3.0356   0.0000   0.0000   0.0000   0.3149
   7.500   1.1649   0.00796   0.00344  -0.0808  0.0237  0.8066  -3.3775   0.0000   0.0000   0.0000   0.3106
   8.000   1.2173   0.00822   0.00373  -0.0805  0.0193  0.8354  -3.7347   0.0000   0.0000   0.0000   0.3067
   8.500   1.2684   0.00825   0.00405  -0.0799  0.0190  1.0000  -4.1023   0.0000   0.0000   0.0000   0.3029
   9.000   1.3191   0.00861   0.00438  -0.0792  0.0178  1.0000  -4.4817   0.0000   0.0000   0.0000   0.2993
   9.500   1.3677   0.00909   0.00481  -0.0783  0.0147  1.0000  -4.8669   0.0000   0.0000   0.0000   0.2957
  10.000   1.4168   0.00951   0.00519  -0.0774  0.0118  1.0000  -5.3104   0.0000   0.0000   0.0000   0.2924
  11.000   1.5135   0.01030   0.00595  -0.0755  0.0108  1.0000  -6.3195   0.0000   0.0000   0.0000   0.2861
  11.500   1.5601   0.01073   0.00638  -0.0743  0.0107  1.0000  -6.8441   0.0000   0.0000   0.0000   0.2830
  12.000   1.6038   0.01118   0.00682  -0.0725  0.0106  1.0000  -7.3700   0.0000   0.0000   0.0000   0.2797
  12.500   1.6434   0.01167   0.00731  -0.0699  0.0105  1.0000  -7.8891   0.0000   0.0000   0.0000   0.2762
  13.000   1.6820   0.01223   0.00787  -0.0674  0.0103  1.0000  -8.4183   0.0000   0.0000   0.0000   0.2728
  13.500   1.7185   0.01296   0.00859  -0.0646  0.0095  1.0000  -8.9489   0.0000   0.0000   0.0000   0.2694
  14.000   1.7508   0.01387   0.00949  -0.0612  0.0080  1.0000  -9.4634   0.0000   0.0000   0.0000   0.2658
  14.500   1.7843   0.01478   0.01039  -0.0583  0.0069  1.0000  -9.9993   0.0000   0.0000   0.0000   0.2626
  15.000   1.8174   0.01571   0.01133  -0.0554  0.0055  1.0000  -10.5447   0.0000   0.0000   0.0000   0.2594
  15.500   1.8498   0.01665   0.01228  -0.0526  0.0049  1.0000  -11.0983   0.0000   0.0000   0.0000   0.2563
  16.000   1.8806   0.01773   0.01339  -0.0497  0.0048  1.0000  -11.6544   0.0000   0.0000   0.0000   0.2533
  16.500   1.9100   0.01893   0.01462  -0.0468  0.0048  1.0000  -12.2138   0.0000   0.0000   0.0000   0.2503
  17.000   1.9396   0.02017   0.01589  -0.0442  0.0048  1.0000  -12.7847   0.0000   0.0000   0.0000   0.2474
  17.500   1.9629   0.02165   0.01741  -0.0408  0.0048  1.0000  -13.3208   0.0000   0.0000   0.0000   0.2443
  18.000   1.9867   0.02325   0.01905  -0.0378  0.0048  1.0000  -13.8688   0.0000   0.0000   0.0000   0.2414
  18.500   2.0095   0.02502   0.02086  -0.0349  0.0048  1.0000  -14.4188   0.0000   0.0000   0.0000   0.2386
  19.000   2.0281   0.02716   0.02305  -0.0320  0.0047  1.0000  -14.9439   0.0000   0.0000   0.0000   0.2358
  19.500   2.0496   0.02920   0.02514  -0.0295  0.0047  1.0000  -15.5545   0.0000   0.0000   0.0000   0.2332
  20.000   2.0639   0.03187   0.02788  -0.0269  0.0047  1.0000  -16.1440   0.0000   0.0000   0.0000   0.2305


