xflr5 v6.61

 Calculated polar for: AH21 7% version (Andrew Hollom)

 1 1 Reynolds number fixed          Mach number fixed         

 xtrf =   1.000 (top)        1.000 (bottom)
 Mach =   0.000     Re =     7.350 e 6     Ncrit =   7.000

  alpha     CL        CD       CDp       Cm    Top Xtr Bot Xtr   Cpmin    Chinge    XCp    
 ------- -------- --------- --------- -------- ------- ------- -------- --------- ---------
  -5.000  -0.1447   0.00508   0.00124  -0.0988  0.8979  0.0095  -3.2893   0.0000   0.0000   0.0000  -0.4432
  -4.900  -0.1336   0.00504   0.00121  -0.0988  0.8974  0.0099  -3.1901   0.0000   0.0000   0.0000  -0.5005
  -4.800  -0.1225   0.00500   0.00117  -0.0988  0.8966  0.0102  -3.0921   0.0000   0.0000   0.0000  -0.5683
  -4.700  -0.1114   0.00496   0.00114  -0.0989  0.8956  0.0104  -2.9954   0.0000   0.0000   0.0000  -0.6494
  -4.600  -0.1003   0.00492   0.00110  -0.0989  0.8942  0.0106  -2.8999   0.0000   0.0000   0.0000  -0.7483
  -4.500  -0.0893   0.00489   0.00107  -0.0988  0.8923  0.0108  -2.8058   0.0000   0.0000   0.0000  -0.8711
  -4.400  -0.0784   0.00486   0.00104  -0.0988  0.8892  0.0110  -2.7133   0.0000   0.0000   0.0000  -1.0259
  -4.300  -0.0677   0.00484   0.00101  -0.0987  0.8845  0.0111  -2.6230   0.0000   0.0000   0.0000  -1.2242
  -4.200  -0.0574   0.00483   0.00098  -0.0985  0.8788  0.0113  -2.5349   0.0000   0.0000   0.0000  -1.4855
  -4.100  -0.0473   0.00482   0.00095  -0.0983  0.8721  0.0114  -2.4487   0.0000   0.0000   0.0000  -1.8514
  -4.000  -0.0369   0.00481   0.00092  -0.0981  0.8650  0.0115  -2.3621   0.0000   0.0000   0.0000  -2.4384
  -3.900  -0.0258   0.00478   0.00089  -0.0981  0.8632  0.0116  -2.2734   0.0000   0.0000   0.0000  -3.5936
  -3.800  -0.0147   0.00476   0.00088  -0.0982  0.8616  0.0118  -2.1766   0.0000   0.0000   0.0000  -6.4989
  -3.700  -0.0036   0.00474   0.00083  -0.0982  0.8592  0.0116  -2.0836   0.0000   0.0000   0.0000  -27.1494
  -3.600   0.0071   0.00473   0.00080  -0.0981  0.8543  0.0117  -2.0041   0.0000   0.0000   0.0000  14.2486
  -3.500   0.0171   0.00473   0.00077  -0.0978  0.8459  0.0117  -1.9277   0.0000   0.0000   0.0000   6.0321
  -3.400   0.0266   0.00474   0.00075  -0.0974  0.8353  0.0117  -1.8536   0.0000   0.0000   0.0000   3.9404
  -3.300   0.0370   0.00474   0.00072  -0.0973  0.8262  0.0118  -1.7776   0.0000   0.0000   0.0000   2.9038
  -3.200   0.0479   0.00471   0.00069  -0.0972  0.8238  0.0118  -1.7002   0.0000   0.0000   0.0000   2.2941
  -3.100   0.0587   0.00470   0.00067  -0.0972  0.8195  0.0119  -1.6245   0.0000   0.0000   0.0000   1.9177
  -3.000   0.0687   0.00472   0.00065  -0.0969  0.8102  0.0119  -1.5523   0.0000   0.0000   0.0000   1.6711
  -2.900   0.0778   0.00476   0.00064  -0.0964  0.7952  0.0119  -1.4840   0.0000   0.0000   0.0000   1.4989
  -2.800   0.0881   0.00476   0.00062  -0.0963  0.7844  0.0120  -1.4126   0.0000   0.0000   0.0000   1.3504
  -2.700   0.0987   0.00475   0.00060  -0.0962  0.7796  0.0120  -1.3409   0.0000   0.0000   0.0000   1.2302
  -2.600   0.1086   0.00478   0.00060  -0.0959  0.7689  0.0121  -1.2728   0.0000   0.0000   0.0000   1.1384
  -2.500   0.1175   0.00483   0.00060  -0.0954  0.7507  0.0121  -1.2085   0.0000   0.0000   0.0000   1.0664
  -2.400   0.1279   0.00484   0.00057  -0.0952  0.7393  0.0121  -1.1406   0.0000   0.0000   0.0000   0.9986
  -2.300   0.1381   0.00485   0.00057  -0.0950  0.7309  0.0122  -1.0742   0.0000   0.0000   0.0000   0.9416
  -2.200   0.1468   0.00493   0.00057  -0.0945  0.7105  0.0122  -1.0134   0.0000   0.0000   0.0000   0.8969
  -2.100   0.1570   0.00496   0.00056  -0.0943  0.6941  0.0123  -0.9491   0.0000   0.0000   0.0000   0.8536
  -2.000   0.1673   0.00497   0.00055  -0.0941  0.6865  0.0123  -0.8852   0.0000   0.0000   0.0000   0.8150
  -1.900   0.1757   0.00507   0.00057  -0.0936  0.6613  0.0124  -0.8281   0.0000   0.0000   0.0000   0.7846
  -1.800   0.1859   0.00510   0.00056  -0.0934  0.6445  0.0124  -0.7665   0.0000   0.0000   0.0000   0.7541
  -1.700   0.1960   0.00513   0.00056  -0.0931  0.6336  0.0125  -0.7065   0.0000   0.0000   0.0000   0.7269
  -1.600   0.2047   0.00523   0.00058  -0.0927  0.6083  0.0125  -0.6510   0.0000   0.0000   0.0000   0.7040
  -1.500   0.2152   0.00525   0.00057  -0.0925  0.5943  0.0129  -0.5919   0.0000   0.0000   0.0000   0.6812
  -1.400   0.2250   0.00530   0.00057  -0.0923  0.5813  0.0133  -0.5354   0.0000   0.0000   0.0000   0.6610
  -1.300   0.2338   0.00541   0.00059  -0.0918  0.5475  0.0136  -0.4828   0.0000   0.0000   0.0000   0.6434
  -1.200   0.2422   0.00554   0.00062  -0.0912  0.5197  0.0140  -0.4320   0.0000   0.0000   0.0000   0.6274
  -1.100   0.2507   0.00568   0.00063  -0.0907  0.4810  0.0144  -0.3819   0.0000   0.0000   0.0000   0.6124
  -1.000   0.2587   0.00584   0.00066  -0.0901  0.4366  0.0148  -0.3673   0.0000   0.0000   0.0000   0.5987
  -0.900   0.2669   0.00601   0.00069  -0.0895  0.3922  0.0152  -0.3720   0.0000   0.0000   0.0000   0.5858
  -0.800   0.2750   0.00618   0.00073  -0.0889  0.3468  0.0156  -0.3772   0.0000   0.0000   0.0000   0.5736
  -0.700   0.2841   0.00630   0.00076  -0.0886  0.3232  0.0160  -0.3839   0.0000   0.0000   0.0000   0.5618
  -0.600   0.2945   0.00634   0.00077  -0.0884  0.3073  0.0165  -0.3914   0.0000   0.0000   0.0000   0.5502
  -0.500   0.3054   0.00635   0.00076  -0.0884  0.3013  0.0169  -0.4006   0.0000   0.0000   0.0000   0.5393
  -0.400   0.3163   0.00635   0.00076  -0.0884  0.2986  0.0174  -0.4107   0.0000   0.0000   0.0000   0.5291
  -0.300   0.3271   0.00637   0.00077  -0.0883  0.2939  0.0178  -0.4214   0.0000   0.0000   0.0000   0.5196
  -0.200   0.3373   0.00642   0.00079  -0.0881  0.2839  0.0183  -0.4328   0.0000   0.0000   0.0000   0.5109
  -0.100   0.3476   0.00647   0.00080  -0.0880  0.2730  0.0187  -0.4450   0.0000   0.0000   0.0000   0.5026
   0.000   0.3583   0.00649   0.00081  -0.0879  0.2615  0.0192  -0.4586   0.0000   0.0000   0.0000   0.4948
   0.100   0.3691   0.00650   0.00081  -0.0879  0.2557  0.0198  -0.4735   0.0000   0.0000   0.0000   0.4873
   0.200   0.3786   0.00661   0.00084  -0.0876  0.2373  0.0205  -0.4874   0.0000   0.0000   0.0000   0.4805
   0.300   0.3885   0.00668   0.00086  -0.0873  0.2126  0.0218  -0.5017   0.0000   0.0000   0.0000   0.4739
   0.400   0.4017   0.00652   0.00083  -0.0877  0.2482  0.0256  -0.5220   0.0000   0.0000   0.0000   0.4675
   0.500   0.4121   0.00656   0.00085  -0.0876  0.2411  0.0279  -0.5400   0.0000   0.0000   0.0000   0.4616
   0.600   0.4223   0.00656   0.00086  -0.0875  0.2318  0.0445  -0.5578   0.0000   0.0000   0.0000   0.4560
   0.700   0.4328   0.00660   0.00087  -0.0874  0.2160  0.0453  -0.5780   0.0000   0.0000   0.0000   0.4507
   0.800   0.4435   0.00662   0.00088  -0.0873  0.2120  0.0505  -0.6009   0.0000   0.0000   0.0000   0.4456
   0.900   0.4539   0.00665   0.00090  -0.0872  0.2052  0.0587  -0.6235   0.0000   0.0000   0.0000   0.4407
   1.000   0.4641   0.00668   0.00092  -0.0870  0.1973  0.0667  -0.6461   0.0000   0.0000   0.0000   0.4361
   1.100   0.4744   0.00665   0.00094  -0.0869  0.1888  0.0982  -0.6687   0.0000   0.0000   0.0000   0.4317
   1.200   0.4851   0.00667   0.00096  -0.0868  0.1795  0.1033  -0.6923   0.0000   0.0000   0.0000   0.4274
   1.300   0.4958   0.00662   0.00096  -0.0868  0.1762  0.1320  -0.7157   0.0000   0.0000   0.0000   0.4234
   1.400   0.5063   0.00656   0.00097  -0.0867  0.1740  0.1687  -0.7413   0.0000   0.0000   0.0000   0.4196
   1.600   0.5267   0.00650   0.00102  -0.0865  0.1626  0.2431  -0.8015   0.0000   0.0000   0.0000   0.4123
   1.700   0.5369   0.00649   0.00105  -0.0863  0.1549  0.2781  -0.8320   0.0000   0.0000   0.0000   0.4089
   1.800   0.5468   0.00634   0.00108  -0.0862  0.1467  0.3562  -0.8622   0.0000   0.0000   0.0000   0.4057
   1.900   0.5566   0.00612   0.00110  -0.0861  0.1413  0.4718  -0.8925   0.0000   0.0000   0.0000   0.4027
   2.000   0.5664   0.00593   0.00114  -0.0860  0.1397  0.5602  -0.9233   0.0000   0.0000   0.0000   0.3997
   2.200   0.5864   0.00592   0.00121  -0.0857  0.1278  0.6361  -0.9861   0.0000   0.0000   0.0000   0.3938
   2.400   0.6067   0.00600   0.00129  -0.0853  0.1059  0.6596  -1.0546   0.0000   0.0000   0.0000   0.3883
   2.500   0.6170   0.00607   0.00133  -0.0852  0.1006  0.6675  -1.0989   0.0000   0.0000   0.0000   0.3856
   2.600   0.6271   0.00611   0.00138  -0.0850  0.0942  0.6875  -1.1431   0.0000   0.0000   0.0000   0.3830
   2.700   0.6375   0.00612   0.00141  -0.0849  0.0876  0.7025  -1.1883   0.0000   0.0000   0.0000   0.3806
   2.800   0.6481   0.00615   0.00144  -0.0848  0.0811  0.7095  -1.2349   0.0000   0.0000   0.0000   0.3782
   2.900   0.6589   0.00618   0.00147  -0.0848  0.0799  0.7134  -1.2821   0.0000   0.0000   0.0000   0.3759
   3.000   0.6694   0.00621   0.00151  -0.0847  0.0777  0.7289  -1.3293   0.0000   0.0000   0.0000   0.3736
   3.100   0.6795   0.00625   0.00156  -0.0845  0.0734  0.7436  -1.3759   0.0000   0.0000   0.0000   0.3714
   3.200   0.6897   0.00630   0.00160  -0.0843  0.0686  0.7536  -1.4229   0.0000   0.0000   0.0000   0.3693
   3.300   0.7001   0.00636   0.00164  -0.0842  0.0637  0.7584  -1.4712   0.0000   0.0000   0.0000   0.3672
   3.400   0.7108   0.00639   0.00168  -0.0841  0.0585  0.7644  -1.5204   0.0000   0.0000   0.0000   0.3652
   3.500   0.7214   0.00641   0.00171  -0.0840  0.0564  0.7784  -1.5701   0.0000   0.0000   0.0000   0.3633
   3.600   0.7319   0.00643   0.00175  -0.0839  0.0556  0.7905  -1.6200   0.0000   0.0000   0.0000   0.3614
   3.700   0.7423   0.00646   0.00179  -0.0838  0.0541  0.7990  -1.6703   0.0000   0.0000   0.0000   0.3595
   3.800   0.7525   0.00653   0.00184  -0.0837  0.0509  0.8033  -1.7204   0.0000   0.0000   0.0000   0.3577
   3.900   0.7628   0.00661   0.00190  -0.0835  0.0473  0.8064  -1.7708   0.0000   0.0000   0.0000   0.3559
   4.100   0.7791   0.00707   0.00223  -0.0823  0.0085  0.8295  -1.8570   0.0000   0.0000   0.0000   0.3520
   4.200   0.7889   0.00716   0.00232  -0.0821  0.0063  0.8380  -1.9020   0.0000   0.0000   0.0000   0.3502
   4.300   0.7991   0.00722   0.00238  -0.0819  0.0052  0.8436  -1.9514   0.0000   0.0000   0.0000   0.3486
   4.400   0.8096   0.00727   0.00243  -0.0818  0.0046  0.8466  -2.0033   0.0000   0.0000   0.0000   0.3471
   4.500   0.8201   0.00732   0.00248  -0.0817  0.0041  0.8519  -2.0563   0.0000   0.0000   0.0000   0.3456
   4.600   0.8304   0.00736   0.00253  -0.0816  0.0038  0.8624  -2.1241   0.0000   0.0000   0.0000   0.3441
   4.700   0.8407   0.00739   0.00258  -0.0814  0.0035  0.8707  -2.2004   0.0000   0.0000   0.0000   0.3426
   4.800   0.8510   0.00743   0.00263  -0.0813  0.0033  0.8774  -2.2779   0.0000   0.0000   0.0000   0.3412
   4.900   0.8614   0.00748   0.00268  -0.0812  0.0031  0.8818  -2.3565   0.0000   0.0000   0.0000   0.3398
   5.000   0.8719   0.00753   0.00272  -0.0810  0.0029  0.8846  -2.4362   0.0000   0.0000   0.0000   0.3384
   5.100   0.8823   0.00758   0.00277  -0.0809  0.0028  0.8882  -2.5168   0.0000   0.0000   0.0000   0.3371
   5.200   0.8925   0.00762   0.00282  -0.0808  0.0027  0.8968  -2.5972   0.0000   0.0000   0.0000   0.3358
   5.300   0.9026   0.00766   0.00288  -0.0806  0.0026  0.9039  -2.6782   0.0000   0.0000   0.0000   0.3344
   5.400   0.9127   0.00770   0.00293  -0.0804  0.0025  0.9097  -2.7604   0.0000   0.0000   0.0000   0.3331
   5.500   0.9230   0.00775   0.00298  -0.0802  0.0025  0.9141  -2.8438   0.0000   0.0000   0.0000   0.3319
   5.600   0.9333   0.00781   0.00303  -0.0801  0.0024  0.9171  -2.9284   0.0000   0.0000   0.0000   0.3307
   5.700   0.9436   0.00786   0.00308  -0.0800  0.0024  0.9191  -3.0139   0.0000   0.0000   0.0000   0.3295
   5.800   0.9537   0.00791   0.00314  -0.0798  0.0024  0.9256  -3.0989   0.0000   0.0000   0.0000   0.3283
   5.900   0.9634   0.00796   0.00320  -0.0795  0.0024  0.9322  -3.1838   0.0000   0.0000   0.0000   0.3271
   6.000   0.9733   0.00801   0.00326  -0.0793  0.0023  0.9377  -3.2700   0.0000   0.0000   0.0000   0.3259
   6.100   0.9833   0.00807   0.00331  -0.0791  0.0023  0.9421  -3.3576   0.0000   0.0000   0.0000   0.3248
   6.200   0.9934   0.00812   0.00337  -0.0789  0.0023  0.9454  -3.4465   0.0000   0.0000   0.0000   0.3237
   6.300   1.0035   0.00819   0.00343  -0.0787  0.0023  0.9481  -3.5363   0.0000   0.0000   0.0000   0.3226
   6.400   1.0128   0.00823   0.00349  -0.0784  0.0023  0.9556  -3.6237   0.0000   0.0000   0.0000   0.3214
   6.500   1.0222   0.00828   0.00355  -0.0780  0.0023  0.9619  -3.7122   0.0000   0.0000   0.0000   0.3202
   6.600   1.0320   0.00834   0.00361  -0.0778  0.0023  0.9671  -3.8031   0.0000   0.0000   0.0000   0.3191
   6.700   1.0418   0.00840   0.00367  -0.0775  0.0023  0.9726  -3.8952   0.0000   0.0000   0.0000   0.3181
   6.800   1.0524   0.00845   0.00373  -0.0775  0.0023  0.9804  -3.9915   0.0000   0.0000   0.0000   0.3172
   6.900   1.0648   0.00853   0.00380  -0.0778  0.0023  0.9865  -4.0965   0.0000   0.0000   0.0000   0.3165
   7.000   1.0790   0.00861   0.00388  -0.0786  0.0022  0.9926  -4.2107   0.0000   0.0000   0.0000   0.3162
   7.100   1.0891   0.00868   0.00394  -0.0785  0.0022  1.0000  -4.3076   0.0000   0.0000   0.0000   0.3152
   7.200   1.0992   0.00875   0.00401  -0.0783  0.0022  1.0000  -4.4057   0.0000   0.0000   0.0000   0.3143
   7.300   1.1093   0.00882   0.00408  -0.0782  0.0022  1.0000  -4.5045   0.0000   0.0000   0.0000   0.3134
   7.400   1.1196   0.00888   0.00418  -0.0780  0.0024  1.0000  -4.5999   0.0000   0.0000   0.0000   0.3125
   7.500   1.1297   0.00895   0.00425  -0.0779  0.0026  1.0000  -4.6972   0.0000   0.0000   0.0000   0.3117
   7.600   1.1398   0.00903   0.00432  -0.0777  0.0026  1.0000  -4.7973   0.0000   0.0000   0.0000   0.3108
   7.700   1.1498   0.00910   0.00439  -0.0776  0.0026  1.0000  -4.8989   0.0000   0.0000   0.0000   0.3099
   7.800   1.1599   0.00918   0.00446  -0.0774  0.0026  1.0000  -5.0016   0.0000   0.0000   0.0000   0.3091
   7.900   1.1699   0.00925   0.00454  -0.0773  0.0025  1.0000  -5.1053   0.0000   0.0000   0.0000   0.3082
   8.000   1.1799   0.00933   0.00461  -0.0771  0.0024  1.0000  -5.2099   0.0000   0.0000   0.0000   0.3074
   8.100   1.1898   0.00941   0.00469  -0.0769  0.0024  1.0000  -5.3148   0.0000   0.0000   0.0000   0.3066
   8.200   1.1998   0.00949   0.00477  -0.0767  0.0024  1.0000  -5.4205   0.0000   0.0000   0.0000   0.3058
   8.300   1.2097   0.00958   0.00485  -0.0765  0.0024  1.0000  -5.5268   0.0000   0.0000   0.0000   0.3050
   8.400   1.2195   0.00966   0.00493  -0.0764  0.0023  1.0000  -5.6339   0.0000   0.0000   0.0000   0.3042
   8.500   1.2294   0.00974   0.00501  -0.0762  0.0023  1.0000  -5.7418   0.0000   0.0000   0.0000   0.3034
   8.600   1.2392   0.00983   0.00510  -0.0760  0.0023  1.0000  -5.8504   0.0000   0.0000   0.0000   0.3026
   8.700   1.2490   0.00992   0.00519  -0.0758  0.0023  1.0000  -5.9597   0.0000   0.0000   0.0000   0.3018
   8.800   1.2588   0.01001   0.00527  -0.0756  0.0023  1.0000  -6.0697   0.0000   0.0000   0.0000   0.3010
   8.900   1.2685   0.01010   0.00536  -0.0754  0.0023  1.0000  -6.1804   0.0000   0.0000   0.0000   0.3003
   9.000   1.2782   0.01019   0.00545  -0.0751  0.0023  1.0000  -6.3222   0.0000   0.0000   0.0000   0.2995
   9.100   1.2879   0.01028   0.00554  -0.0749  0.0023  1.0000  -6.4871   0.0000   0.0000   0.0000   0.2988
   9.200   1.2975   0.01037   0.00564  -0.0747  0.0022  1.0000  -6.6535   0.0000   0.0000   0.0000   0.2980
   9.300   1.3072   0.01047   0.00573  -0.0745  0.0022  1.0000  -6.8215   0.0000   0.0000   0.0000   0.2973
   9.400   1.3167   0.01056   0.00583  -0.0742  0.0022  1.0000  -6.9910   0.0000   0.0000   0.0000   0.2965
   9.500   1.3263   0.01066   0.00593  -0.0740  0.0022  1.0000  -7.1621   0.0000   0.0000   0.0000   0.2958
   9.600   1.3358   0.01076   0.00603  -0.0738  0.0022  1.0000  -7.3346   0.0000   0.0000   0.0000   0.2951
   9.700   1.3453   0.01086   0.00613  -0.0735  0.0022  1.0000  -7.5086   0.0000   0.0000   0.0000   0.2944
   9.800   1.3548   0.01096   0.00623  -0.0733  0.0022  1.0000  -7.6841   0.0000   0.0000   0.0000   0.2936
   9.900   1.3642   0.01106   0.00633  -0.0730  0.0022  1.0000  -7.8611   0.0000   0.0000   0.0000   0.2929
  10.000   1.3736   0.01116   0.00644  -0.0728  0.0022  1.0000  -8.0395   0.0000   0.0000   0.0000   0.2922
  10.100   1.3830   0.01127   0.00654  -0.0725  0.0022  1.0000  -8.2193   0.0000   0.0000   0.0000   0.2915
  10.200   1.3923   0.01137   0.00665  -0.0722  0.0021  1.0000  -8.4005   0.0000   0.0000   0.0000   0.2908
  10.300   1.4015   0.01148   0.00676  -0.0719  0.0021  1.0000  -8.5830   0.0000   0.0000   0.0000   0.2901
  10.400   1.4108   0.01159   0.00687  -0.0717  0.0021  1.0000  -8.7670   0.0000   0.0000   0.0000   0.2894
  10.500   1.4198   0.01172   0.00703  -0.0713  0.0021  1.0000  -8.9457   0.0000   0.0000   0.0000   0.2887
  10.600   1.4289   0.01184   0.00715  -0.0710  0.0021  1.0000  -9.1309   0.0000   0.0000   0.0000   0.2880
  10.700   1.4380   0.01195   0.00727  -0.0707  0.0021  1.0000  -9.3178   0.0000   0.0000   0.0000   0.2873
  10.800   1.4470   0.01207   0.00739  -0.0704  0.0021  1.0000  -9.5062   0.0000   0.0000   0.0000   0.2867
  10.900   1.4560   0.01219   0.00752  -0.0701  0.0020  1.0000  -9.6960   0.0000   0.0000   0.0000   0.2860
  11.000   1.4650   0.01231   0.00764  -0.0697  0.0020  1.0000  -9.8870   0.0000   0.0000   0.0000   0.2853
  11.100   1.4739   0.01243   0.00777  -0.0694  0.0020  1.0000  -10.0792   0.0000   0.0000   0.0000   0.2846
  11.200   1.4827   0.01255   0.00790  -0.0691  0.0020  1.0000  -10.2726   0.0000   0.0000   0.0000   0.2839
  11.300   1.4915   0.01268   0.00803  -0.0687  0.0020  1.0000  -10.4672   0.0000   0.0000   0.0000   0.2833
  11.400   1.5003   0.01281   0.00816  -0.0683  0.0020  1.0000  -10.6629   0.0000   0.0000   0.0000   0.2826
  11.500   1.5090   0.01294   0.00830  -0.0680  0.0020  1.0000  -10.8596   0.0000   0.0000   0.0000   0.2819
  11.600   1.5176   0.01307   0.00843  -0.0676  0.0020  1.0000  -11.0573   0.0000   0.0000   0.0000   0.2812
  11.700   1.5262   0.01320   0.00857  -0.0672  0.0020  1.0000  -11.2561   0.0000   0.0000   0.0000   0.2806
  11.800   1.5347   0.01333   0.00871  -0.0668  0.0020  1.0000  -11.4558   0.0000   0.0000   0.0000   0.2799
  11.900   1.5432   0.01347   0.00886  -0.0664  0.0020  1.0000  -11.6564   0.0000   0.0000   0.0000   0.2792
  12.000   1.5516   0.01361   0.00900  -0.0660  0.0020  1.0000  -11.8578   0.0000   0.0000   0.0000   0.2786
  12.100   1.5599   0.01375   0.00915  -0.0656  0.0020  1.0000  -12.0600   0.0000   0.0000   0.0000   0.2779
  12.200   1.5681   0.01389   0.00930  -0.0651  0.0020  1.0000  -12.2631   0.0000   0.0000   0.0000   0.2772
  12.300   1.5763   0.01403   0.00945  -0.0647  0.0020  1.0000  -12.4667   0.0000   0.0000   0.0000   0.2765
  12.400   1.5843   0.01418   0.00961  -0.0642  0.0020  1.0000  -12.6700   0.0000   0.0000   0.0000   0.2758
  12.500   1.5920   0.01432   0.00976  -0.0636  0.0020  1.0000  -12.8715   0.0000   0.0000   0.0000   0.2751
  12.600   1.5994   0.01447   0.00991  -0.0630  0.0020  1.0000  -13.0714   0.0000   0.0000   0.0000   0.2744
  12.700   1.6065   0.01461   0.01007  -0.0624  0.0020  1.0000  -13.2703   0.0000   0.0000   0.0000   0.2736
  12.800   1.6136   0.01476   0.01023  -0.0617  0.0019  1.0000  -13.4688   0.0000   0.0000   0.0000   0.2729
  12.900   1.6204   0.01491   0.01039  -0.0610  0.0019  1.0000  -13.6665   0.0000   0.0000   0.0000   0.2721
  13.000   1.6271   0.01507   0.01056  -0.0602  0.0019  1.0000  -13.8641   0.0000   0.0000   0.0000   0.2713
  13.100   1.6338   0.01522   0.01073  -0.0595  0.0019  1.0000  -14.0622   0.0000   0.0000   0.0000   0.2705
  13.200   1.6404   0.01538   0.01090  -0.0588  0.0019  1.0000  -14.2614   0.0000   0.0000   0.0000   0.2698
  13.300   1.6470   0.01554   0.01107  -0.0580  0.0019  1.0000  -14.4619   0.0000   0.0000   0.0000   0.2690
  13.400   1.6537   0.01571   0.01125  -0.0573  0.0019  1.0000  -14.6636   0.0000   0.0000   0.0000   0.2682
  13.500   1.6602   0.01588   0.01143  -0.0566  0.0019  1.0000  -14.8650   0.0000   0.0000   0.0000   0.2675
  13.600   1.6665   0.01605   0.01162  -0.0558  0.0019  1.0000  -15.0650   0.0000   0.0000   0.0000   0.2667
  13.700   1.6726   0.01623   0.01181  -0.0550  0.0019  1.0000  -15.2646   0.0000   0.0000   0.0000   0.2659
  13.800   1.6788   0.01641   0.01200  -0.0542  0.0019  1.0000  -15.4651   0.0000   0.0000   0.0000   0.2651
  13.900   1.6849   0.01659   0.01220  -0.0534  0.0019  1.0000  -15.6670   0.0000   0.0000   0.0000   0.2644
  14.000   1.6916   0.01675   0.01238  -0.0528  0.0019  1.0000  -15.8812   0.0000   0.0000   0.0000   0.2637
  14.100   1.6978   0.01693   0.01258  -0.0520  0.0019  1.0000  -16.0877   0.0000   0.0000   0.0000   0.2629
  14.200   1.7040   0.01712   0.01278  -0.0513  0.0019  1.0000  -16.2939   0.0000   0.0000   0.0000   0.2622
  14.300   1.7100   0.01732   0.01299  -0.0505  0.0019  1.0000  -16.4991   0.0000   0.0000   0.0000   0.2615
  14.400   1.7156   0.01752   0.01321  -0.0497  0.0019  1.0000  -16.7001   0.0000   0.0000   0.0000   0.2607
  14.500   1.7210   0.01773   0.01343  -0.0488  0.0019  1.0000  -16.8994   0.0000   0.0000   0.0000   0.2599
  14.600   1.7264   0.01794   0.01366  -0.0480  0.0019  1.0000  -17.1001   0.0000   0.0000   0.0000   0.2591
  14.700   1.7319   0.01816   0.01390  -0.0472  0.0019  1.0000  -17.3027   0.0000   0.0000   0.0000   0.2584
  14.800   1.7374   0.01838   0.01414  -0.0463  0.0019  1.0000  -17.5069   0.0000   0.0000   0.0000   0.2576
  14.900   1.7430   0.01861   0.01438  -0.0456  0.0019  1.0000  -17.7122   0.0000   0.0000   0.0000   0.2569
  15.000   1.7485   0.01885   0.01463  -0.0448  0.0019  1.0000  -17.9182   0.0000   0.0000   0.0000   0.2562
  15.100   1.7539   0.01908   0.01489  -0.0440  0.0019  1.0000  -18.1241   0.0000   0.0000   0.0000   0.2555
  15.200   1.7587   0.01933   0.01515  -0.0431  0.0019  1.0000  -18.3224   0.0000   0.0000   0.0000   0.2547
  15.300   1.7628   0.01959   0.01543  -0.0421  0.0019  1.0000  -18.5131   0.0000   0.0000   0.0000   0.2539
  15.400   1.7670   0.01985   0.01572  -0.0412  0.0019  1.0000  -18.7061   0.0000   0.0000   0.0000   0.2531
  15.500   1.7715   0.02012   0.01601  -0.0403  0.0019  1.0000  -18.9033   0.0000   0.0000   0.0000   0.2523
  15.600   1.7761   0.02040   0.01630  -0.0394  0.0019  1.0000  -19.1032   0.0000   0.0000   0.0000   0.2516
  15.700   1.7808   0.02068   0.01660  -0.0386  0.0019  1.0000  -19.3046   0.0000   0.0000   0.0000   0.2509
  15.800   1.7855   0.02097   0.01691  -0.0377  0.0019  1.0000  -19.5068   0.0000   0.0000   0.0000   0.2501
  15.900   1.7901   0.02126   0.01723  -0.0369  0.0019  1.0000  -19.7091   0.0000   0.0000   0.0000   0.2494
  16.000   1.7942   0.02158   0.01756  -0.0360  0.0019  1.0000  -19.9046   0.0000   0.0000   0.0000   0.2487
  16.100   1.7971   0.02192   0.01792  -0.0350  0.0018  1.0000  -20.0859   0.0000   0.0000   0.0000   0.2479
  16.200   1.8003   0.02226   0.01829  -0.0340  0.0018  1.0000  -20.2706   0.0000   0.0000   0.0000   0.2471
  16.300   1.8038   0.02261   0.01866  -0.0331  0.0018  1.0000  -20.4613   0.0000   0.0000   0.0000   0.2463
  16.400   1.8075   0.02296   0.01903  -0.0322  0.0018  1.0000  -20.6550   0.0000   0.0000   0.0000   0.2456
  16.500   1.8113   0.02331   0.01940  -0.0314  0.0018  1.0000  -20.8500   0.0000   0.0000   0.0000   0.2449
  16.600   1.8151   0.02367   0.01979  -0.0305  0.0018  1.0000  -21.0451   0.0000   0.0000   0.0000   0.2442
  16.700   1.8186   0.02404   0.02018  -0.0297  0.0018  1.0000  -21.2378   0.0000   0.0000   0.0000   0.2435
  16.800   1.8201   0.02445   0.02062  -0.0286  0.0018  1.0000  -21.4028   0.0000   0.0000   0.0000   0.2426
  16.900   1.8211   0.02489   0.02109  -0.0275  0.0018  1.0000  -21.5615   0.0000   0.0000   0.0000   0.2418
  17.000   1.8232   0.02533   0.02155  -0.0265  0.0018  1.0000  -21.7361   0.0000   0.0000   0.0000   0.2411
  17.100   1.8258   0.02577   0.02201  -0.0256  0.0018  1.0000  -21.9177   0.0000   0.0000   0.0000   0.2403
  17.200   1.8285   0.02622   0.02249  -0.0248  0.0018  1.0000  -22.1019   0.0000   0.0000   0.0000   0.2396
  17.300   1.8313   0.02668   0.02297  -0.0240  0.0018  1.0000  -22.2866   0.0000   0.0000   0.0000   0.2390
  17.400   1.8338   0.02716   0.02348  -0.0232  0.0018  1.0000  -22.4688   0.0000   0.0000   0.0000   0.2383
  17.500   1.8337   0.02775   0.02410  -0.0221  0.0018  1.0000  -22.6128   0.0000   0.0000   0.0000   0.2375
  17.600   1.8341   0.02835   0.02473  -0.0211  0.0018  1.0000  -22.7645   0.0000   0.0000   0.0000   0.2367
  17.700   1.8356   0.02892   0.02532  -0.0203  0.0018  1.0000  -22.9316   0.0000   0.0000   0.0000   0.2360
  17.800   1.8374   0.02949   0.02592  -0.0195  0.0018  1.0000  -23.1038   0.0000   0.0000   0.0000   0.2354
  17.900   1.8392   0.03007   0.02653  -0.0188  0.0018  1.0000  -23.2767   0.0000   0.0000   0.0000   0.2348
  18.000   1.8409   0.03066   0.02715  -0.0181  0.0018  1.0000  -23.4482   0.0000   0.0000   0.0000   0.2341
  18.100   1.8398   0.03142   0.02793  -0.0172  0.0018  1.0000  -23.5777   0.0000   0.0000   0.0000   0.2334
  18.200   1.8385   0.03220   0.02875  -0.0163  0.0018  1.0000  -23.7041   0.0000   0.0000   0.0000   0.2327
  18.300   1.8389   0.03292   0.02950  -0.0156  0.0018  1.0000  -23.8548   0.0000   0.0000   0.0000   0.2321
  18.400   1.8396   0.03363   0.03024  -0.0149  0.0018  1.0000  -24.0116   0.0000   0.0000   0.0000   0.2315
  18.500   1.8393   0.03444   0.03110  -0.0142  0.0018  1.0000  -24.1478   0.0000   0.0000   0.0000   0.2309
  18.600   1.8385   0.03528   0.03197  -0.0135  0.0018  1.0000  -24.2793   0.0000   0.0000   0.0000   0.2303
  18.700   1.8343   0.03637   0.03310  -0.0127  0.0018  1.0000  -24.3578   0.0000   0.0000   0.0000   0.2296
  18.800   1.8332   0.03728   0.03404  -0.0122  0.0018  1.0000  -24.4838   0.0000   0.0000   0.0000   0.2290
  18.900   1.8327   0.03816   0.03495  -0.0117  0.0018  1.0000  -24.6202   0.0000   0.0000   0.0000   0.2285
  19.000   1.8323   0.03905   0.03588  -0.0112  0.0018  1.0000  -24.7567   0.0000   0.0000   0.0000   0.2280
  19.100   1.8292   0.04018   0.03705  -0.0107  0.0018  1.0000  -24.8496   0.0000   0.0000   0.0000   0.2275
  19.200   1.8241   0.04146   0.03836  -0.0103  0.0018  1.0000  -24.9090   0.0000   0.0000   0.0000   0.2270
  19.300   1.8218   0.04251   0.03945  -0.0099  0.0018  1.0000  -25.0139   0.0000   0.0000   0.0000   0.2266
  19.400   1.8202   0.04356   0.04053  -0.0096  0.0018  1.0000  -25.1276   0.0000   0.0000   0.0000   0.2262
  19.500   1.8178   0.04473   0.04174  -0.0094  0.0018  1.0000  -25.2281   0.0000   0.0000   0.0000   0.2258
  19.600   1.8102   0.04650   0.04355  -0.0093  0.0018  1.0000  -25.2397   0.0000   0.0000   0.0000   0.2255
  19.700   1.8075   0.04782   0.04492  -0.0093  0.0018  1.0000  -25.3317   0.0000   0.0000   0.0000   0.2252
  19.800   1.8052   0.04913   0.04626  -0.0093  0.0018  1.0000  -25.4318   0.0000   0.0000   0.0000   0.2249
  19.900   1.8015   0.05066   0.04783  -0.0094  0.0018  1.0000  -25.5049   0.0000   0.0000   0.0000   0.2247
  20.000   1.7932   0.05283   0.05005  -0.0098  0.0018  1.0000  -25.4939   0.0000   0.0000   0.0000   0.2247
  20.100   1.7898   0.05442   0.05168  -0.0100  0.0018  1.0000  -25.5688   0.0000   0.0000   0.0000   0.2246
  20.200   1.7867   0.05603   0.05332  -0.0103  0.0018  1.0000  -25.6474   0.0000   0.0000   0.0000   0.2245
  20.300   1.7767   0.05867   0.05602  -0.0112  0.0018  1.0000  -25.5958   0.0000   0.0000   0.0000   0.2247
  20.400   1.7715   0.06068   0.05806  -0.0118  0.0018  1.0000  -25.6317   0.0000   0.0000   0.0000   0.2247
  20.500   1.7673   0.06257   0.06000  -0.0124  0.0017  1.0000  -25.6848   0.0000   0.0000   0.0000   0.2248
  20.600   1.7558   0.06570   0.06319  -0.0138  0.0017  1.0000  -25.5939   0.0000   0.0000   0.0000   0.2253
  20.700   1.7491   0.06809   0.06562  -0.0148  0.0017  1.0000  -25.5946   0.0000   0.0000   0.0000   0.2256
  20.800   1.7436   0.07032   0.06789  -0.0157  0.0017  1.0000  -25.6149   0.0000   0.0000   0.0000   0.2259
  20.900   1.7288   0.07427   0.07191  -0.0178  0.0017  1.0000  -25.4443   0.0000   0.0000   0.0000   0.2269
  21.000   1.7217   0.07687   0.07456  -0.0191  0.0017  1.0000  -25.4257   0.0000   0.0000   0.0000   0.2274
  21.100   1.7063   0.08108   0.07883  -0.0215  0.0017  1.0000  -25.2308   0.0000   0.0000   0.0000   0.2286
  21.200   1.6962   0.08432   0.08213  -0.0233  0.0017  1.0000  -25.1410   0.0000   0.0000   0.0000   0.2294
  21.300   1.6872   0.08733   0.08519  -0.0250  0.0017  1.0000  -25.0717   0.0000   0.0000   0.0000   0.2302
  21.400   1.6662   0.09281   0.09074  -0.0285  0.0017  1.0000  -24.7345   0.0000   0.0000   0.0000   0.2322
  21.600   1.6305   0.10249   0.10056  -0.0348  0.0017  1.0000  -24.1712   0.0000   0.0000   0.0000   0.2358
  21.700   1.6019   0.10955   0.10771  -0.0396  0.0018  1.0000  -23.6256   0.0000   0.0000   0.0000   0.2389
  21.800   1.5875   0.11365   0.11187  -0.0424  0.0018  1.0000  -23.3990   0.0000   0.0000   0.0000   0.2406
  21.900   1.5537   0.12151   0.11984  -0.0481  0.0018  1.0000  -22.6956   0.0000   0.0000   0.0000   0.2447
  22.400   1.3343   0.17704   0.17593  -0.0872  0.0018  1.0000  -17.2889   0.0000   0.0000   0.0000   0.2790
  22.500   1.2658   0.19884   0.19789  -0.0999  0.0018  1.0000  -15.2508   0.0000   0.0000   0.0000   0.2933
  22.600   1.2604   0.20256   0.20163  -0.1021  0.0018  1.0000  -15.1160   0.0000   0.0000   0.0000   0.2952
  22.700   1.1891   0.22952   0.22876  -0.1156  0.0018  1.0000  -12.7346   0.0000   0.0000   0.0000   0.3127
  22.800   1.1871   0.23256   0.23182  -0.1171  0.0018  1.0000  -12.6818   0.0000   0.0000   0.0000   0.3139


