xflr5 v6.61

 Calculated polar for: AH21 9% version (Andrew Hollom)

 1 1 Reynolds number fixed          Mach number fixed         

 xtrf =   1.000 (top)        1.000 (bottom)
 Mach =   0.000     Re =    18.000 e 6     Ncrit =   9.000

  alpha     CL        CD       CDp       Cm    Top Xtr Bot Xtr   Cpmin    Chinge    XCp    
 ------- -------- --------- --------- -------- ------- ------- -------- --------- ---------
  -5.000  -0.2330   0.00443   0.00108  -0.0773  0.8873  0.0030  -3.9438   0.0000   0.0000   0.0000  -0.0862
  -4.500  -0.1798   0.00433   0.00090  -0.0768  0.8562  0.0031  -3.4117   0.0000   0.0000   0.0000  -0.1820
  -4.000  -0.1279   0.00432   0.00077  -0.0761  0.8076  0.0032  -2.9136   0.0000   0.0000   0.0000  -0.3504
  -3.500  -0.0762   0.00431   0.00063  -0.0754  0.7408  0.0113  -2.4158   0.0000   0.0000   0.0000  -0.7464
  -3.000  -0.0245   0.00443   0.00056  -0.0747  0.6736  0.0116  -1.9769   0.0000   0.0000   0.0000  -2.8207
  -2.500   0.0210   0.00502   0.00055  -0.0727  0.4437  0.0118  -1.6041   0.0000   0.0000   0.0000   3.7372
  -2.000   0.0719   0.00534   0.00054  -0.0719  0.3233  0.0119  -1.2331   0.0000   0.0000   0.0000   1.2545
  -1.500   0.1210   0.00588   0.00059  -0.0708  0.1180  0.0121  -0.8960   0.0000   0.0000   0.0000   0.8366
  -1.000   0.1755   0.00596   0.00058  -0.0707  0.0802  0.0122  -0.5682   0.0000   0.0000   0.0000   0.6533
  -0.500   0.2296   0.00609   0.00061  -0.0705  0.0438  0.0123  -0.3001   0.0000   0.0000   0.0000   0.5571
   0.000   0.2846   0.00612   0.00063  -0.0705  0.0354  0.0125  -0.3605   0.0000   0.0000   0.0000   0.4973
   1.000   0.3948   0.00619   0.00071  -0.0706  0.0358  0.0178  -0.6032   0.0000   0.0000   0.0000   0.4278
   1.500   0.4499   0.00622   0.00076  -0.0706  0.0363  0.0228  -0.7911   0.0000   0.0000   0.0000   0.4057
   2.000   0.5047   0.00624   0.00082  -0.0706  0.0362  0.0470  -1.0206   0.0000   0.0000   0.0000   0.3883
   2.500   0.5591   0.00611   0.00092  -0.0705  0.0357  0.1821  -1.2971   0.0000   0.0000   0.0000   0.3744
   3.000   0.6110   0.00559   0.00110  -0.0704  0.0277  0.5596  -1.6744   0.0000   0.0000   0.0000   0.3631
   3.500   0.6644   0.00547   0.00125  -0.0702  0.0206  0.7116  -2.0903   0.0000   0.0000   0.0000   0.3532
   4.000   0.7176   0.00565   0.00146  -0.0699  0.0144  0.7620  -2.5358   0.0000   0.0000   0.0000   0.3446
   4.500   0.7698   0.00595   0.00181  -0.0694  0.0021  0.8127  -3.0303   0.0000   0.0000   0.0000   0.3369
   5.000   0.8231   0.00611   0.00204  -0.0691  0.0020  0.8550  -3.5414   0.0000   0.0000   0.0000   0.3302
   5.500   0.8760   0.00630   0.00228  -0.0687  0.0019  0.8924  -4.0794   0.0000   0.0000   0.0000   0.3243
   6.000   0.9284   0.00652   0.00255  -0.0682  0.0019  0.9229  -4.6440   0.0000   0.0000   0.0000   0.3189
   6.500   0.9800   0.00677   0.00284  -0.0676  0.0019  0.9507  -5.2333   0.0000   0.0000   0.0000   0.3138
   7.000   1.0297   0.00703   0.00315  -0.0665  0.0019  0.9857  -6.2059   0.0000   0.0000   0.0000   0.3089
   7.500   1.0864   0.00733   0.00346  -0.0671  0.0020  1.0000  -7.3810   0.0000   0.0000   0.0000   0.3055
   8.000   1.1382   0.00771   0.00384  -0.0666  0.0019  1.0000  -8.5666   0.0000   0.0000   0.0000   0.3016
   8.500   1.1894   0.00814   0.00428  -0.0660  0.0019  1.0000  -9.8201   0.0000   0.0000   0.0000   0.2979
   9.000   1.2400   0.00862   0.00478  -0.0654  0.0019  1.0000  -11.1394   0.0000   0.0000   0.0000   0.2944
   9.500   1.2900   0.00915   0.00535  -0.0646  0.0018  1.0000  -12.5204   0.0000   0.0000   0.0000   0.2911
  10.000   1.3391   0.00976   0.00600  -0.0637  0.0018  1.0000  -13.9578   0.0000   0.0000   0.0000   0.2878
  10.500   1.3861   0.01060   0.00693  -0.0624  0.0017  1.0000  -15.4072   0.0000   0.0000   0.0000   0.2845
  11.000   1.4318   0.01156   0.00800  -0.0609  0.0017  1.0000  -16.8978   0.0000   0.0000   0.0000   0.2812
  11.500   1.4742   0.01287   0.00946  -0.0588  0.0017  1.0000  -18.3663   0.0000   0.0000   0.0000   0.2778


