xflr5 v6.61

 Calculated polar for: AH21 9% version (Andrew Hollom)

 1 1 Reynolds number fixed          Mach number fixed         

 xtrf =   1.000 (top)        1.000 (bottom)
 Mach =   0.000     Re =    18.000 e 6     Ncrit =   3.000

  alpha     CL        CD       CDp       Cm    Top Xtr Bot Xtr   Cpmin    Chinge    XCp    
 ------- -------- --------- --------- -------- ------- ------- -------- --------- ---------
  -5.000  -0.2540   0.00554   0.00121  -0.0727  0.5364  0.0025  -4.0404   0.0000   0.0000   0.0000  -0.0404
  -4.750  -0.2276   0.00555   0.00113  -0.0725  0.4967  0.0025  -3.7704   0.0000   0.0000   0.0000  -0.0727
  -4.500  -0.2010   0.00556   0.00107  -0.0723  0.4742  0.0026  -3.5066   0.0000   0.0000   0.0000  -0.1140
  -4.000  -0.1476   0.00556   0.00094  -0.0720  0.4162  0.0027  -2.9987   0.0000   0.0000   0.0000  -0.2429
  -3.750  -0.1202   0.00552   0.00087  -0.0720  0.3949  0.0028  -2.7520   0.0000   0.0000   0.0000  -0.3545
  -3.500  -0.0939   0.00554   0.00079  -0.0718  0.3603  0.0066  -2.5111   0.0000   0.0000   0.0000  -0.5207
  -3.250  -0.0665   0.00549   0.00072  -0.0718  0.3448  0.0089  -2.2799   0.0000   0.0000   0.0000  -0.8374
  -3.000  -0.0400   0.00552   0.00069  -0.0716  0.3103  0.0109  -2.0571   0.0000   0.0000   0.0000  -1.5529
  -2.500   0.0116   0.00582   0.00066  -0.0709  0.1717  0.0110  -1.6496   0.0000   0.0000   0.0000   6.4137
  -2.250   0.0377   0.00596   0.00065  -0.0707  0.1082  0.0111  -1.4555   0.0000   0.0000   0.0000   2.1319
  -2.000   0.0648   0.00600   0.00064  -0.0706  0.0810  0.0111  -1.2649   0.0000   0.0000   0.0000   1.3435
  -1.750   0.0910   0.00614   0.00064  -0.0703  0.0196  0.0112  -1.0855   0.0000   0.0000   0.0000   1.0242
  -1.500   0.1185   0.00615   0.00064  -0.0703  0.0149  0.0112  -0.9083   0.0000   0.0000   0.0000   0.8443
  -1.250   0.1461   0.00616   0.00063  -0.0703  0.0132  0.0113  -0.7385   0.0000   0.0000   0.0000   0.7319
  -1.000   0.1736   0.00617   0.00063  -0.0703  0.0118  0.0113  -0.5764   0.0000   0.0000   0.0000   0.6552
  -0.750   0.2012   0.00618   0.00063  -0.0703  0.0106  0.0113  -0.4222   0.0000   0.0000   0.0000   0.5996
  -0.500   0.2287   0.00619   0.00064  -0.0703  0.0096  0.0113  -0.3000   0.0000   0.0000   0.0000   0.5573
  -0.250   0.2563   0.00620   0.00065  -0.0703  0.0093  0.0113  -0.3269   0.0000   0.0000   0.0000   0.5241
   0.000   0.2838   0.00622   0.00067  -0.0703  0.0091  0.0113  -0.3621   0.0000   0.0000   0.0000   0.4974
   0.250   0.3113   0.00624   0.00068  -0.0703  0.0091  0.0113  -0.4060   0.0000   0.0000   0.0000   0.4754
   0.500   0.3388   0.00627   0.00071  -0.0703  0.0091  0.0114  -0.4598   0.0000   0.0000   0.0000   0.4569
   0.750   0.3662   0.00629   0.00073  -0.0703  0.0092  0.0115  -0.5209   0.0000   0.0000   0.0000   0.4412
   1.000   0.3937   0.00632   0.00075  -0.0703  0.0092  0.0116  -0.5957   0.0000   0.0000   0.0000   0.4276
   1.250   0.4211   0.00635   0.00078  -0.0703  0.0093  0.0117  -0.6769   0.0000   0.0000   0.0000   0.4159
   1.500   0.4485   0.00638   0.00082  -0.0703  0.0094  0.0119  -0.7866   0.0000   0.0000   0.0000   0.4055
   1.750   0.4759   0.00642   0.00085  -0.0703  0.0095  0.0121  -0.8996   0.0000   0.0000   0.0000   0.3963
   2.000   0.5032   0.00646   0.00089  -0.0702  0.0097  0.0124  -1.0159   0.0000   0.0000   0.0000   0.3881
   2.250   0.5305   0.00650   0.00094  -0.0702  0.0099  0.0141  -1.1357   0.0000   0.0000   0.0000   0.3807
   2.500   0.5578   0.00655   0.00098  -0.0702  0.0099  0.0168  -1.2928   0.0000   0.0000   0.0000   0.3740
   2.750   0.5850   0.00659   0.00103  -0.0702  0.0099  0.0206  -1.4848   0.0000   0.0000   0.0000   0.3680
   3.000   0.6116   0.00631   0.00112  -0.0701  0.0097  0.2495  -1.6778   0.0000   0.0000   0.0000   0.3625
   3.250   0.6384   0.00620   0.00119  -0.0701  0.0094  0.3492  -1.8821   0.0000   0.0000   0.0000   0.3575
   3.500   0.6656   0.00625   0.00126  -0.0701  0.0093  0.3759  -2.0965   0.0000   0.0000   0.0000   0.3528
   4.000   0.7188   0.00645   0.00150  -0.0698  0.0050  0.4134  -2.5420   0.0000   0.0000   0.0000   0.3442
   4.250   0.7453   0.00653   0.00166  -0.0696  0.0017  0.4474  -2.7894   0.0000   0.0000   0.0000   0.3404
   4.500   0.7721   0.00662   0.00178  -0.0695  0.0016  0.4569  -3.0343   0.0000   0.0000   0.0000   0.3368
   4.750   0.7989   0.00669   0.00188  -0.0694  0.0016  0.4914  -3.2851   0.0000   0.0000   0.0000   0.3334
   5.000   0.8256   0.00677   0.00199  -0.0693  0.0015  0.5052  -3.5430   0.0000   0.0000   0.0000   0.3303
   5.250   0.8523   0.00686   0.00211  -0.0692  0.0015  0.5350  -3.8080   0.0000   0.0000   0.0000   0.3273
   5.500   0.8788   0.00693   0.00223  -0.0691  0.0015  0.5566  -4.0795   0.0000   0.0000   0.0000   0.3245
   5.750   0.9054   0.00705   0.00236  -0.0689  0.0015  0.5760  -4.3587   0.0000   0.0000   0.0000   0.3218
   6.250   0.9582   0.00725   0.00264  -0.0686  0.0015  0.6209  -4.9368   0.0000   0.0000   0.0000   0.3167
   6.500   0.9844   0.00733   0.00279  -0.0685  0.0015  0.6565  -5.2490   0.0000   0.0000   0.0000   0.3144
   6.750   1.0107   0.00747   0.00295  -0.0683  0.0015  0.6683  -5.7601   0.0000   0.0000   0.0000   0.3121
   7.000   1.0368   0.00758   0.00311  -0.0681  0.0014  0.7005  -6.2887   0.0000   0.0000   0.0000   0.3100
   7.250   1.0631   0.00769   0.00327  -0.0679  0.0016  0.7133  -6.8502   0.0000   0.0000   0.0000   0.3079
   7.500   1.0891   0.00781   0.00343  -0.0677  0.0016  0.7458  -7.4193   0.0000   0.0000   0.0000   0.3059
   7.750   1.1150   0.00797   0.00362  -0.0675  0.0016  0.7595  -8.0058   0.0000   0.0000   0.0000   0.3039
   8.000   1.1407   0.00811   0.00382  -0.0672  0.0016  0.7886  -8.6096   0.0000   0.0000   0.0000   0.3020
   8.250   1.1663   0.00828   0.00402  -0.0670  0.0015  0.8042  -9.2312   0.0000   0.0000   0.0000   0.3002
   8.500   1.1918   0.00845   0.00424  -0.0667  0.0015  0.8300  -9.8706   0.0000   0.0000   0.0000   0.2984
   8.750   1.2172   0.00863   0.00446  -0.0664  0.0015  0.8465  -10.5268   0.0000   0.0000   0.0000   0.2966
   9.000   1.2424   0.00882   0.00469  -0.0660  0.0015  0.8698  -11.2002   0.0000   0.0000   0.0000   0.2949
   9.250   1.2674   0.00902   0.00493  -0.0656  0.0015  0.8850  -11.8897   0.0000   0.0000   0.0000   0.2932
   9.500   1.2922   0.00922   0.00519  -0.0652  0.0015  0.9086  -12.5941   0.0000   0.0000   0.0000   0.2915
   9.750   1.3168   0.00945   0.00546  -0.0648  0.0014  0.9203  -13.3158   0.0000   0.0000   0.0000   0.2898
  10.000   1.3408   0.00967   0.00572  -0.0642  0.0014  0.9424  -14.0460   0.0000   0.0000   0.0000   0.2881
  10.250   1.3640   0.00993   0.00604  -0.0634  0.0014  0.9611  -14.7778   0.0000   0.0000   0.0000   0.2864
  10.500   1.3871   0.01018   0.00634  -0.0627  0.0014  0.9851  -15.5273   0.0000   0.0000   0.0000   0.2847
  10.750   1.4134   0.01048   0.00666  -0.0627  0.0013  1.0000  -16.3436   0.0000   0.0000   0.0000   0.2834
  11.000   1.4375   0.01079   0.00699  -0.0622  0.0013  1.0000  -17.1453   0.0000   0.0000   0.0000   0.2819
  11.250   1.4613   0.01111   0.00733  -0.0617  0.0013  1.0000  -17.9614   0.0000   0.0000   0.0000   0.2805
  11.500   1.4850   0.01145   0.00768  -0.0611  0.0013  1.0000  -18.7915   0.0000   0.0000   0.0000   0.2790
  11.750   1.5085   0.01180   0.00805  -0.0605  0.0013  1.0000  -19.6350   0.0000   0.0000   0.0000   0.2776
  12.000   1.5317   0.01216   0.00843  -0.0599  0.0013  1.0000  -20.4912   0.0000   0.0000   0.0000   0.2761
  12.250   1.5546   0.01254   0.00883  -0.0593  0.0013  1.0000  -21.3595   0.0000   0.0000   0.0000   0.2747
  12.500   1.5773   0.01293   0.00925  -0.0586  0.0013  1.0000  -22.2393   0.0000   0.0000   0.0000   0.2733
  12.750   1.5997   0.01334   0.00969  -0.0579  0.0013  1.0000  -23.1298   0.0000   0.0000   0.0000   0.2718
  13.000   1.6217   0.01377   0.01014  -0.0571  0.0012  1.0000  -24.0302   0.0000   0.0000   0.0000   0.2704
  13.250   1.6434   0.01422   0.01061  -0.0563  0.0012  1.0000  -24.9395   0.0000   0.0000   0.0000   0.2690
  13.500   1.6650   0.01464   0.01108  -0.0555  0.0012  1.0000  -25.8679   0.0000   0.0000   0.0000   0.2676
  13.750   1.6859   0.01512   0.01158  -0.0546  0.0012  1.0000  -26.7954   0.0000   0.0000   0.0000   0.2662
  14.000   1.7064   0.01562   0.01211  -0.0536  0.0012  1.0000  -27.7272   0.0000   0.0000   0.0000   0.2647
  14.250   1.7263   0.01614   0.01267  -0.0526  0.0012  1.0000  -28.6628   0.0000   0.0000   0.0000   0.2633
  14.500   1.7457   0.01668   0.01325  -0.0515  0.0012  1.0000  -29.6007   0.0000   0.0000   0.0000   0.2618
  14.750   1.7645   0.01725   0.01386  -0.0502  0.0012  1.0000  -30.5391   0.0000   0.0000   0.0000   0.2603
  15.000   1.7826   0.01784   0.01449  -0.0489  0.0012  1.0000  -31.4760   0.0000   0.0000   0.0000   0.2588
  15.250   1.7998   0.01846   0.01515  -0.0475  0.0012  1.0000  -32.4085   0.0000   0.0000   0.0000   0.2572
  15.500   1.8162   0.01911   0.01584  -0.0460  0.0012  1.0000  -33.3336   0.0000   0.0000   0.0000   0.2556
  15.750   1.8316   0.01979   0.01657  -0.0443  0.0012  1.0000  -34.2473   0.0000   0.0000   0.0000   0.2540
  16.000   1.8457   0.02049   0.01732  -0.0424  0.0012  1.0000  -35.1445   0.0000   0.0000   0.0000   0.2523
  16.250   1.8557   0.02119   0.01807  -0.0398  0.0012  1.0000  -35.9591   0.0000   0.0000   0.0000   0.2502
  16.500   1.8615   0.02190   0.01883  -0.0363  0.0012  1.0000  -36.6881   0.0000   0.0000   0.0000   0.2478
  16.750   1.8668   0.02268   0.01966  -0.0330  0.0012  1.0000  -37.4070   0.0000   0.0000   0.0000   0.2455
  17.000   1.8712   0.02356   0.02060  -0.0298  0.0011  1.0000  -38.1094   0.0000   0.0000   0.0000   0.2432
  17.250   1.8747   0.02455   0.02166  -0.0266  0.0011  1.0000  -38.7889   0.0000   0.0000   0.0000   0.2410
  17.500   1.8771   0.02567   0.02284  -0.0236  0.0011  1.0000  -39.4465   0.0000   0.0000   0.0000   0.2388
  17.750   1.8780   0.02692   0.02416  -0.0206  0.0011  1.0000  -40.0706   0.0000   0.0000   0.0000   0.2367
  18.000   1.8796   0.02825   0.02555  -0.0179  0.0011  1.0000  -40.7099   0.0000   0.0000   0.0000   0.2347
  18.250   1.8758   0.02985   0.02723  -0.0149  0.0011  1.0000  -41.2149   0.0000   0.0000   0.0000   0.2326
  18.500   1.8726   0.03167   0.02912  -0.0124  0.0011  1.0000  -41.7285   0.0000   0.0000   0.0000   0.2307
  18.750   1.8699   0.03365   0.03117  -0.0104  0.0011  1.0000  -42.2529   0.0000   0.0000   0.0000   0.2291
  19.000   1.8619   0.03613   0.03373  -0.0084  0.0011  1.0000  -42.6283   0.0000   0.0000   0.0000   0.2274
  19.250   1.8523   0.03899   0.03667  -0.0070  0.0011  1.0000  -42.9489   0.0000   0.0000   0.0000   0.2261
  19.500   1.8420   0.04220   0.03997  -0.0061  0.0011  1.0000  -43.2334   0.0000   0.0000   0.0000   0.2250
  19.750   1.8305   0.04580   0.04365  -0.0059  0.0011  1.0000  -43.4676   0.0000   0.0000   0.0000   0.2242
  20.000   1.8107   0.05049   0.04844  -0.0066  0.0011  1.0000  -43.4368   0.0000   0.0000   0.0000   0.2240
  20.250   1.7846   0.05706   0.05513  -0.0091  0.0011  1.0000  -43.1599   0.0000   0.0000   0.0000   0.2247
  20.500   1.7580   0.06471   0.06290  -0.0130  0.0011  1.0000  -42.8030   0.0000   0.0000   0.0000   0.2262


