xflr5 v6.61

 Calculated polar for: HQ 2.5/9 AIRFOIL

 1 1 Reynolds number fixed          Mach number fixed         

 xtrf =   1.000 (top)        1.000 (bottom)
 Mach =   0.000     Re =    18.000 e 6     Ncrit =   9.000

  alpha     CL        CD       CDp       Cm    Top Xtr Bot Xtr   Cpmin    Chinge    XCp    
 ------- -------- --------- --------- -------- ------- ------- -------- --------- ---------
  -4.000  -0.0985   0.00502   0.00109  -0.0737  0.6277  0.0022  -3.3749   0.0000   0.0000   0.0000  -0.5085
  -3.500  -0.0420   0.00485   0.00084  -0.0740  0.5989  0.0022  -2.5199   0.0000   0.0000   0.0000  -1.5340
  -3.000   0.0143   0.00480   0.00070  -0.0744  0.5743  0.0024  -2.0074   0.0000   0.0000   0.0000   5.5148
  -2.000   0.1258   0.00490   0.00055  -0.0750  0.4726  0.0050  -1.0819   0.0000   0.0000   0.0000   0.8487
  -1.000   0.2347   0.00550   0.00060  -0.0751  0.2706  0.0086  -0.4411   0.0000   0.0000   0.0000   0.5705
  -0.500   0.2908   0.00550   0.00058  -0.0755  0.2456  0.0248  -0.4616   0.0000   0.0000   0.0000   0.5092
   0.000   0.3471   0.00555   0.00060  -0.0758  0.2295  0.0253  -0.5179   0.0000   0.0000   0.0000   0.4676
   0.500   0.4037   0.00556   0.00061  -0.0761  0.2220  0.0249  -0.5826   0.0000   0.0000   0.0000   0.4375
   1.000   0.4605   0.00547   0.00062  -0.0766  0.2255  0.0626  -0.6515   0.0000   0.0000   0.0000   0.4147
   1.500   0.5163   0.00552   0.00068  -0.0768  0.1996  0.1128  -0.7394   0.0000   0.0000   0.0000   0.3969
   2.000   0.5720   0.00545   0.00077  -0.0771  0.1814  0.2276  -0.8290   0.0000   0.0000   0.0000   0.3826
   2.500   0.6252   0.00515   0.00095  -0.0774  0.1197  0.5762  -0.9194   0.0000   0.0000   0.0000   0.3712
   3.000   0.6791   0.00548   0.00116  -0.0773  0.0710  0.6004  -1.0486   0.0000   0.0000   0.0000   0.3608
   3.500   0.7307   0.00609   0.00158  -0.0767  0.0046  0.6477  -1.1773   0.0000   0.0000   0.0000   0.3516
   4.000   0.7857   0.00633   0.00182  -0.0767  0.0020  0.6545  -1.3392   0.0000   0.0000   0.0000   0.3438


