xflr5 v6.61

 Calculated polar for: HQ 2.5/8 AIRFOIL

 1 1 Reynolds number fixed          Mach number fixed         

 xtrf =   1.000 (top)        1.000 (bottom)
 Mach =   0.000     Re =    18.000 e 6     Ncrit =   9.000

  alpha     CL        CD       CDp       Cm    Top Xtr Bot Xtr   Cpmin    Chinge    XCp    
 ------- -------- --------- --------- -------- ------- ------- -------- --------- ---------
  -3.000   0.0142   0.00467   0.00062  -0.0742  0.5861  0.0025  -2.6117   0.0000   0.0000   0.0000   5.4903
  -2.500   0.0695   0.00473   0.00054  -0.0744  0.5270  0.0046  -1.7526   0.0000   0.0000   0.0000   1.3266
  -2.000   0.1236   0.00503   0.00055  -0.0746  0.4038  0.0050  -1.2911   0.0000   0.0000   0.0000   0.8557
  -0.500   0.2886   0.00558   0.00055  -0.0753  0.2124  0.0072  -0.4261   0.0000   0.0000   0.0000   0.5104
   0.000   0.3448   0.00558   0.00056  -0.0756  0.2035  0.0078  -0.4854   0.0000   0.0000   0.0000   0.4686
   0.500   0.4008   0.00561   0.00057  -0.0759  0.1932  0.0076  -0.5488   0.0000   0.0000   0.0000   0.4384
   1.000   0.4580   0.00543   0.00055  -0.0764  0.2240  0.0270  -0.6222   0.0000   0.0000   0.0000   0.4154
   1.500   0.5136   0.00550   0.00060  -0.0766  0.1985  0.0499  -0.7091   0.0000   0.0000   0.0000   0.3976
   2.000   0.5691   0.00545   0.00069  -0.0769  0.1750  0.1716  -0.7976   0.0000   0.0000   0.0000   0.3832
   2.500   0.6224   0.00537   0.00089  -0.0771  0.1002  0.4485  -0.9076   0.0000   0.0000   0.0000   0.3716
   3.000   0.6746   0.00568   0.00123  -0.0769  0.0279  0.6241  -1.0256   0.0000   0.0000   0.0000   0.3613
   3.500   0.7285   0.00598   0.00150  -0.0768  0.0029  0.6541  -1.1841   0.0000   0.0000   0.0000   0.3523


