xflr5 v6.61

 Calculated polar for: HQ 2.5/9.0 smoothed by Eppler

 1 1 Reynolds number fixed          Mach number fixed         

 xtrf =   1.000 (top)        1.000 (bottom)
 Mach =   0.000     Re =    18.000 e 6     Ncrit =   9.000

  alpha     CL        CD       CDp       Cm    Top Xtr Bot Xtr   Cpmin    Chinge    XCp    
 ------- -------- --------- --------- -------- ------- ------- -------- --------- ---------
  -5.000  -0.1906   0.00607   0.00116  -0.0787  0.2709  0.0115  -3.5489   0.0000   0.0000   0.0000  -0.1701
  -4.000  -0.0796   0.00605   0.00096  -0.0793  0.1946  0.0121  -2.6941   0.0000   0.0000   0.0000  -0.7587
  -3.500  -0.0255   0.00629   0.00092  -0.0794  0.0797  0.0122  -2.3075   0.0000   0.0000   0.0000  -2.8890
  -3.000   0.0305   0.00626   0.00086  -0.0797  0.0625  0.0123  -1.9379   0.0000   0.0000   0.0000   2.8839
  -2.500   0.0866   0.00624   0.00080  -0.0800  0.0495  0.0124  -1.5897   0.0000   0.0000   0.0000   1.1791
  -1.500   0.1980   0.00634   0.00080  -0.0805  0.0229  0.0126  -0.9589   0.0000   0.0000   0.0000   0.6572
  -1.000   0.2539   0.00637   0.00082  -0.0807  0.0203  0.0127  -0.6747   0.0000   0.0000   0.0000   0.5680
  -0.500   0.3098   0.00641   0.00084  -0.0810  0.0182  0.0132  -0.4973   0.0000   0.0000   0.0000   0.5109
   0.000   0.3657   0.00646   0.00088  -0.0812  0.0165  0.0138  -0.5451   0.0000   0.0000   0.0000   0.4713
   0.500   0.4216   0.00652   0.00093  -0.0815  0.0150  0.0144  -0.5964   0.0000   0.0000   0.0000   0.4420
   1.000   0.4774   0.00658   0.00099  -0.0817  0.0161  0.0186  -0.6546   0.0000   0.0000   0.0000   0.4195
   1.500   0.5331   0.00665   0.00106  -0.0819  0.0162  0.0216  -0.7189   0.0000   0.0000   0.0000   0.4017
   2.000   0.5887   0.00673   0.00114  -0.0820  0.0158  0.0305  -0.8399   0.0000   0.0000   0.0000   0.3871
   2.500   0.6443   0.00679   0.00123  -0.0822  0.0148  0.0513  -1.0968   0.0000   0.0000   0.0000   0.3750
   3.000   0.6997   0.00690   0.00134  -0.0823  0.0134  0.0788  -1.3773   0.0000   0.0000   0.0000   0.3647
   3.500   0.7551   0.00693   0.00148  -0.0824  0.0127  0.1485  -1.6736   0.0000   0.0000   0.0000   0.3558
   4.000   0.8100   0.00653   0.00166  -0.0828  0.0126  0.4874  -1.9841   0.0000   0.0000   0.0000   0.3484
   4.500   0.8651   0.00669   0.00183  -0.0828  0.0124  0.4997  -2.3163   0.0000   0.0000   0.0000   0.3415
   5.000   0.9196   0.00665   0.00205  -0.0829  0.0122  0.6496  -2.6627   0.0000   0.0000   0.0000   0.3354
   5.500   0.9726   0.00701   0.00249  -0.0825  0.0043  0.6961  -3.0429   0.0000   0.0000   0.0000   0.3296
   6.000   1.0268   0.00728   0.00275  -0.0824  0.0041  0.6992  -3.4270   0.0000   0.0000   0.0000   0.3244
   6.500   1.0808   0.00757   0.00302  -0.0822  0.0040  0.7045  -3.8252   0.0000   0.0000   0.0000   0.3197
   7.000   1.1344   0.00787   0.00332  -0.0820  0.0040  0.7231  -4.2382   0.0000   0.0000   0.0000   0.3153
   7.500   1.1881   0.00811   0.00357  -0.0818  0.0042  0.7408  -4.6572   0.0000   0.0000   0.0000   0.3112
   8.000   1.2411   0.00844   0.00392  -0.0814  0.0041  0.7548  -5.0992   0.0000   0.0000   0.0000   0.3073
   8.500   1.2934   0.00876   0.00430  -0.0810  0.0041  0.7948  -5.6580   0.0000   0.0000   0.0000   0.3036
   9.500   1.3965   0.00952   0.00519  -0.0798  0.0039  0.8722  -7.4400   0.0000   0.0000   0.0000   0.2966
  10.000   1.4452   0.00980   0.00569  -0.0786  0.0039  1.0000  -8.3816   0.0000   0.0000   0.0000   0.2931
  10.500   1.4941   0.01047   0.00641  -0.0775  0.0036  1.0000  -9.3568   0.0000   0.0000   0.0000   0.2898
  11.000   1.5427   0.01111   0.00708  -0.0765  0.0036  1.0000  -10.3862   0.0000   0.0000   0.0000   0.2866
  11.500   1.5902   0.01180   0.00780  -0.0753  0.0035  1.0000  -11.4530   0.0000   0.0000   0.0000   0.2835
  12.000   1.6364   0.01255   0.00859  -0.0738  0.0034  1.0000  -12.5502   0.0000   0.0000   0.0000   0.2804
  12.500   1.6809   0.01339   0.00947  -0.0722  0.0034  1.0000  -13.6705   0.0000   0.0000   0.0000   0.2773
  13.000   1.7232   0.01432   0.01045  -0.0702  0.0034  1.0000  -14.8045   0.0000   0.0000   0.0000   0.2742
  13.500   1.7625   0.01537   0.01157  -0.0677  0.0033  1.0000  -15.9392   0.0000   0.0000   0.0000   0.2709
  14.000   1.7978   0.01657   0.01285  -0.0647  0.0033  1.0000  -17.0546   0.0000   0.0000   0.0000   0.2675
  14.500   1.8267   0.01796   0.01434  -0.0607  0.0032  1.0000  -18.1149   0.0000   0.0000   0.0000   0.2638
  15.000   1.8470   0.01889   0.01534  -0.0549  0.0033  1.0000  -19.1249   0.0000   0.0000   0.0000   0.2593
  15.500   1.8552   0.02056   0.01713  -0.0479  0.0032  1.0000  -19.9513   0.0000   0.0000   0.0000   0.2545
  16.000   1.8578   0.02292   0.01964  -0.0414  0.0032  1.0000  -20.6930   0.0000   0.0000   0.0000   0.2500
  16.500   1.8530   0.02613   0.02304  -0.0352  0.0032  1.0000  -21.3142   0.0000   0.0000   0.0000   0.2457
  17.000   1.8334   0.03106   0.02819  -0.0294  0.0032  1.0000  -21.6831   0.0000   0.0000   0.0000   0.2418
  17.500   1.7906   0.03915   0.03660  -0.0250  0.0032  1.0000  -21.6136   0.0000   0.0000   0.0000   0.2386


