xflr5 v6.61

 Calculated polar for: HQ 2.5/9.0 smoothed by Eppler

 1 1 Reynolds number fixed          Mach number fixed         

 xtrf =   1.000 (top)        1.000 (bottom)
 Mach =   0.000     Re =     7.350 e 6     Ncrit =   7.000

  alpha     CL        CD       CDp       Cm    Top Xtr Bot Xtr   Cpmin    Chinge    XCp    
 ------- -------- --------- --------- -------- ------- ------- -------- --------- ---------
  -5.000  -0.1801   0.00570   0.00138  -0.0802  0.6985  0.0114  -3.4664   0.0000   0.0000   0.0000  -0.2024
  -4.900  -0.1702   0.00578   0.00136  -0.0800  0.6714  0.0115  -3.3807   0.0000   0.0000   0.0000  -0.2277
  -4.800  -0.1609   0.00594   0.00135  -0.0798  0.6143  0.0116  -3.2990   0.0000   0.0000   0.0000  -0.2533
  -4.700  -0.1545   0.00647   0.00140  -0.0791  0.4491  0.0116  -3.2311   0.0000   0.0000   0.0000  -0.2692
  -4.500  -0.1340   0.00665   0.00138  -0.0789  0.3812  0.0118  -3.0651   0.0000   0.0000   0.0000  -0.3472
  -4.400  -0.1232   0.00668   0.00136  -0.0789  0.3641  0.0118  -2.9818   0.0000   0.0000   0.0000  -0.3992
  -4.300  -0.1122   0.00667   0.00133  -0.0790  0.3509  0.0119  -2.8985   0.0000   0.0000   0.0000  -0.4634
  -4.200  -0.1010   0.00665   0.00129  -0.0791  0.3472  0.0119  -2.8161   0.0000   0.0000   0.0000  -0.5422
  -4.100  -0.0899   0.00662   0.00125  -0.0791  0.3453  0.0119  -2.7349   0.0000   0.0000   0.0000  -0.6409
  -4.000  -0.0790   0.00663   0.00123  -0.0792  0.3365  0.0120  -2.6560   0.0000   0.0000   0.0000  -0.7639
  -3.900  -0.0680   0.00664   0.00120  -0.0792  0.3277  0.0120  -2.5779   0.0000   0.0000   0.0000  -0.9266
  -3.800  -0.0570   0.00666   0.00121  -0.0792  0.3191  0.0121  -2.4903   0.0000   0.0000   0.0000  -1.1535
  -3.700  -0.0460   0.00670   0.00127  -0.0793  0.3109  0.0122  -2.3915   0.0000   0.0000   0.0000  -1.4928
  -3.600  -0.0348   0.00669   0.00125  -0.0794  0.3027  0.0122  -2.3108   0.0000   0.0000   0.0000  -2.0512
  -3.500  -0.0236   0.00664   0.00117  -0.0794  0.2992  0.0122  -2.2479   0.0000   0.0000   0.0000  -3.1419
  -3.400  -0.0128   0.00666   0.00112  -0.0794  0.2871  0.0122  -2.1825   0.0000   0.0000   0.0000  -5.9906
  -3.200   0.0065   0.00702   0.00111  -0.0791  0.1585  0.0123  -2.0566   0.0000   0.0000   0.0000  12.4899
  -3.100   0.0166   0.00716   0.00111  -0.0790  0.0999  0.0123  -1.9919   0.0000   0.0000   0.0000   5.0435
  -3.000   0.0275   0.00718   0.00109  -0.0790  0.0880  0.0123  -1.9241   0.0000   0.0000   0.0000   3.1441
  -2.900   0.0385   0.00719   0.00107  -0.0790  0.0824  0.0123  -1.8560   0.0000   0.0000   0.0000   2.3157
  -2.800   0.0496   0.00719   0.00105  -0.0790  0.0788  0.0123  -1.7879   0.0000   0.0000   0.0000   1.8541
  -2.700   0.0607   0.00719   0.00103  -0.0791  0.0752  0.0124  -1.7203   0.0000   0.0000   0.0000   1.5608
  -2.600   0.0718   0.00719   0.00102  -0.0791  0.0716  0.0124  -1.6532   0.0000   0.0000   0.0000   1.3581
  -2.500   0.0830   0.00719   0.00100  -0.0792  0.0681  0.0124  -1.5866   0.0000   0.0000   0.0000   1.2095
  -2.400   0.0941   0.00718   0.00099  -0.0792  0.0646  0.0124  -1.5206   0.0000   0.0000   0.0000   1.0961
  -2.300   0.1053   0.00718   0.00097  -0.0793  0.0611  0.0125  -1.4553   0.0000   0.0000   0.0000   1.0066
  -2.200   0.1165   0.00717   0.00096  -0.0793  0.0576  0.0125  -1.3907   0.0000   0.0000   0.0000   0.9343
  -2.100   0.1276   0.00717   0.00095  -0.0794  0.0541  0.0125  -1.3268   0.0000   0.0000   0.0000   0.8746
  -2.000   0.1388   0.00716   0.00094  -0.0795  0.0506  0.0125  -1.2636   0.0000   0.0000   0.0000   0.8245
  -1.900   0.1500   0.00716   0.00093  -0.0795  0.0496  0.0126  -1.2013   0.0000   0.0000   0.0000   0.7819
  -1.800   0.1611   0.00716   0.00092  -0.0796  0.0491  0.0126  -1.1398   0.0000   0.0000   0.0000   0.7453
  -1.700   0.1723   0.00716   0.00092  -0.0796  0.0486  0.0126  -1.0791   0.0000   0.0000   0.0000   0.7133
  -1.600   0.1834   0.00716   0.00091  -0.0797  0.0483  0.0127  -1.0192   0.0000   0.0000   0.0000   0.6853
  -1.500   0.1946   0.00716   0.00091  -0.0797  0.0482  0.0127  -0.9601   0.0000   0.0000   0.0000   0.6604
  -1.400   0.2058   0.00716   0.00091  -0.0798  0.0481  0.0127  -0.9019   0.0000   0.0000   0.0000   0.6383
  -1.300   0.2169   0.00716   0.00091  -0.0798  0.0480  0.0129  -0.8446   0.0000   0.0000   0.0000   0.6184
  -1.200   0.2273   0.00728   0.00096  -0.0797  0.0291  0.0133  -0.7912   0.0000   0.0000   0.0000   0.6010
  -1.100   0.2384   0.00729   0.00096  -0.0797  0.0248  0.0136  -0.7358   0.0000   0.0000   0.0000   0.5847
  -1.000   0.2495   0.00730   0.00096  -0.0798  0.0242  0.0139  -0.6810   0.0000   0.0000   0.0000   0.5698
  -0.900   0.2606   0.00731   0.00097  -0.0798  0.0236  0.0142  -0.6270   0.0000   0.0000   0.0000   0.5562
  -0.800   0.2717   0.00732   0.00097  -0.0799  0.0231  0.0145  -0.5739   0.0000   0.0000   0.0000   0.5437
  -0.700   0.2829   0.00733   0.00097  -0.0799  0.0226  0.0148  -0.5216   0.0000   0.0000   0.0000   0.5322
  -0.600   0.2940   0.00734   0.00098  -0.0799  0.0221  0.0151  -0.4850   0.0000   0.0000   0.0000   0.5216
  -0.500   0.3051   0.00735   0.00098  -0.0800  0.0216  0.0153  -0.4944   0.0000   0.0000   0.0000   0.5117
  -0.400   0.3162   0.00736   0.00099  -0.0800  0.0212  0.0155  -0.5039   0.0000   0.0000   0.0000   0.5025
  -0.300   0.3273   0.00738   0.00100  -0.0801  0.0208  0.0157  -0.5133   0.0000   0.0000   0.0000   0.4940
  -0.200   0.3384   0.00739   0.00101  -0.0801  0.0204  0.0159  -0.5229   0.0000   0.0000   0.0000   0.4860
  -0.100   0.3495   0.00740   0.00102  -0.0801  0.0200  0.0161  -0.5324   0.0000   0.0000   0.0000   0.4785
   0.000   0.3606   0.00741   0.00103  -0.0802  0.0196  0.0162  -0.5419   0.0000   0.0000   0.0000   0.4715
   0.100   0.3717   0.00742   0.00104  -0.0802  0.0192  0.0163  -0.5515   0.0000   0.0000   0.0000   0.4648
   0.200   0.3828   0.00744   0.00105  -0.0802  0.0189  0.0165  -0.5611   0.0000   0.0000   0.0000   0.4586
   0.300   0.3939   0.00745   0.00106  -0.0803  0.0185  0.0166  -0.5707   0.0000   0.0000   0.0000   0.4527
   0.400   0.4050   0.00746   0.00107  -0.0803  0.0182  0.0168  -0.5814   0.0000   0.0000   0.0000   0.4471
   0.500   0.4161   0.00748   0.00108  -0.0804  0.0179  0.0169  -0.5929   0.0000   0.0000   0.0000   0.4419
   0.600   0.4272   0.00749   0.00110  -0.0804  0.0176  0.0172  -0.6044   0.0000   0.0000   0.0000   0.4369
   0.700   0.4383   0.00751   0.00111  -0.0804  0.0172  0.0175  -0.6160   0.0000   0.0000   0.0000   0.4321
   0.800   0.4494   0.00752   0.00112  -0.0804  0.0169  0.0180  -0.6275   0.0000   0.0000   0.0000   0.4276
   0.900   0.4605   0.00753   0.00114  -0.0805  0.0188  0.0212  -0.6390   0.0000   0.0000   0.0000   0.4233
   1.000   0.4716   0.00754   0.00116  -0.0805  0.0191  0.0218  -0.6506   0.0000   0.0000   0.0000   0.4192
   1.100   0.4827   0.00756   0.00117  -0.0805  0.0192  0.0224  -0.6622   0.0000   0.0000   0.0000   0.4152
   1.200   0.4938   0.00757   0.00119  -0.0806  0.0193  0.0231  -0.6739   0.0000   0.0000   0.0000   0.4115
   1.300   0.5048   0.00759   0.00121  -0.0806  0.0193  0.0238  -0.6856   0.0000   0.0000   0.0000   0.4079
   1.400   0.5159   0.00760   0.00122  -0.0806  0.0193  0.0245  -0.6973   0.0000   0.0000   0.0000   0.4044
   1.500   0.5270   0.00762   0.00124  -0.0807  0.0193  0.0261  -0.7111   0.0000   0.0000   0.0000   0.4011
   1.600   0.5381   0.00758   0.00125  -0.0807  0.0193  0.0479  -0.7316   0.0000   0.0000   0.0000   0.3980
   1.700   0.5491   0.00760   0.00127  -0.0807  0.0192  0.0481  -0.7524   0.0000   0.0000   0.0000   0.3950
   1.800   0.5602   0.00762   0.00129  -0.0807  0.0191  0.0484  -0.7733   0.0000   0.0000   0.0000   0.3920
   1.900   0.5712   0.00764   0.00131  -0.0808  0.0190  0.0493  -0.8001   0.0000   0.0000   0.0000   0.3892
   2.000   0.5823   0.00767   0.00133  -0.0808  0.0189  0.0508  -0.8293   0.0000   0.0000   0.0000   0.3865
   2.100   0.5933   0.00769   0.00136  -0.0808  0.0187  0.0565  -0.8668   0.0000   0.0000   0.0000   0.3839
   2.200   0.6043   0.00771   0.00139  -0.0808  0.0185  0.0620  -0.9184   0.0000   0.0000   0.0000   0.3813
   2.300   0.6154   0.00774   0.00141  -0.0808  0.0183  0.0676  -0.9707   0.0000   0.0000   0.0000   0.3789
   2.400   0.6264   0.00776   0.00144  -0.0808  0.0181  0.0732  -1.0236   0.0000   0.0000   0.0000   0.3765
   2.500   0.6374   0.00778   0.00146  -0.0809  0.0179  0.0788  -1.0771   0.0000   0.0000   0.0000   0.3743
   2.600   0.6484   0.00779   0.00149  -0.0809  0.0176  0.0846  -1.1313   0.0000   0.0000   0.0000   0.3721
   2.700   0.6594   0.00781   0.00152  -0.0809  0.0173  0.0903  -1.1861   0.0000   0.0000   0.0000   0.3699
   2.800   0.6704   0.00783   0.00154  -0.0809  0.0170  0.0961  -1.2416   0.0000   0.0000   0.0000   0.3679
   2.900   0.6814   0.00785   0.00157  -0.0809  0.0166  0.1122  -1.2978   0.0000   0.0000   0.0000   0.3659
   3.000   0.6924   0.00781   0.00160  -0.0810  0.0162  0.1491  -1.3542   0.0000   0.0000   0.0000   0.3640
   3.100   0.7034   0.00778   0.00164  -0.0810  0.0158  0.1910  -1.4114   0.0000   0.0000   0.0000   0.3621
   3.200   0.7142   0.00730   0.00169  -0.0813  0.0153  0.4470  -1.4666   0.0000   0.0000   0.0000   0.3608
   3.300   0.7250   0.00724   0.00173  -0.0814  0.0148  0.4976  -1.5247   0.0000   0.0000   0.0000   0.3590
   3.400   0.7359   0.00723   0.00177  -0.0814  0.0144  0.5285  -1.5839   0.0000   0.0000   0.0000   0.3573
   3.500   0.7469   0.00724   0.00180  -0.0814  0.0139  0.5396  -1.6437   0.0000   0.0000   0.0000   0.3556
   3.600   0.7578   0.00726   0.00183  -0.0814  0.0133  0.5460  -1.7041   0.0000   0.0000   0.0000   0.3540
   3.700   0.7688   0.00728   0.00188  -0.0814  0.0127  0.5617  -1.7645   0.0000   0.0000   0.0000   0.3524
   3.800   0.7796   0.00725   0.00192  -0.0814  0.0127  0.5947  -1.8261   0.0000   0.0000   0.0000   0.3508
   3.900   0.7905   0.00726   0.00197  -0.0814  0.0126  0.6207  -1.8885   0.0000   0.0000   0.0000   0.3493
   4.000   0.8013   0.00724   0.00201  -0.0814  0.0126  0.6460  -1.9514   0.0000   0.0000   0.0000   0.3478
   4.100   0.8122   0.00728   0.00205  -0.0814  0.0126  0.6499  -2.0153   0.0000   0.0000   0.0000   0.3463
   4.200   0.8231   0.00731   0.00210  -0.0814  0.0126  0.6693  -2.0797   0.0000   0.0000   0.0000   0.3449
   4.300   0.8340   0.00732   0.00215  -0.0814  0.0125  0.6844  -2.1446   0.0000   0.0000   0.0000   0.3435
   4.400   0.8448   0.00735   0.00219  -0.0814  0.0125  0.6911  -2.2103   0.0000   0.0000   0.0000   0.3422
   4.500   0.8557   0.00739   0.00223  -0.0814  0.0125  0.6946  -2.2777   0.0000   0.0000   0.0000   0.3408
   4.600   0.8666   0.00744   0.00228  -0.0813  0.0124  0.6966  -2.3469   0.0000   0.0000   0.0000   0.3395
   4.700   0.8775   0.00748   0.00232  -0.0813  0.0124  0.6979  -2.4159   0.0000   0.0000   0.0000   0.3382
   4.800   0.8884   0.00753   0.00237  -0.0813  0.0123  0.6986  -2.4848   0.0000   0.0000   0.0000   0.3370
   4.900   0.8993   0.00758   0.00241  -0.0813  0.0123  0.6990  -2.5545   0.0000   0.0000   0.0000   0.3357
   5.000   0.9101   0.00763   0.00246  -0.0813  0.0122  0.6995  -2.6248   0.0000   0.0000   0.0000   0.3345
   5.100   0.9210   0.00769   0.00251  -0.0812  0.0122  0.6998  -2.6958   0.0000   0.0000   0.0000   0.3334
   5.200   0.9305   0.00791   0.00275  -0.0810  0.0051  0.7007  -2.7879   0.0000   0.0000   0.0000   0.3321
   5.300   0.9411   0.00800   0.00285  -0.0809  0.0046  0.7037  -2.8663   0.0000   0.0000   0.0000   0.3309
   5.400   0.9518   0.00807   0.00292  -0.0808  0.0044  0.7074  -2.9421   0.0000   0.0000   0.0000   0.3298
   5.500   0.9625   0.00813   0.00299  -0.0808  0.0043  0.7115  -3.0177   0.0000   0.0000   0.0000   0.3287
   5.600   0.9733   0.00820   0.00305  -0.0807  0.0042  0.7156  -3.0934   0.0000   0.0000   0.0000   0.3276
   5.700   0.9840   0.00826   0.00312  -0.0807  0.0041  0.7195  -3.1695   0.0000   0.0000   0.0000   0.3265
   5.800   0.9946   0.00832   0.00319  -0.0806  0.0041  0.7233  -3.2459   0.0000   0.0000   0.0000   0.3255
   5.900   1.0053   0.00838   0.00325  -0.0806  0.0040  0.7270  -3.3228   0.0000   0.0000   0.0000   0.3244
   6.000   1.0160   0.00844   0.00332  -0.0805  0.0040  0.7305  -3.4002   0.0000   0.0000   0.0000   0.3234
   6.100   1.0266   0.00850   0.00339  -0.0804  0.0040  0.7339  -3.4781   0.0000   0.0000   0.0000   0.3224
   6.200   1.0373   0.00857   0.00346  -0.0804  0.0039  0.7371  -3.5566   0.0000   0.0000   0.0000   0.3215
   6.300   1.0479   0.00863   0.00353  -0.0803  0.0039  0.7402  -3.6356   0.0000   0.0000   0.0000   0.3205
   6.400   1.0585   0.00870   0.00360  -0.0802  0.0039  0.7430  -3.7152   0.0000   0.0000   0.0000   0.3195
   6.500   1.0691   0.00877   0.00367  -0.0802  0.0039  0.7455  -3.7954   0.0000   0.0000   0.0000   0.3186
   6.600   1.0797   0.00884   0.00374  -0.0801  0.0039  0.7476  -3.8761   0.0000   0.0000   0.0000   0.3177
   6.700   1.0902   0.00891   0.00382  -0.0800  0.0038  0.7494  -3.9574   0.0000   0.0000   0.0000   0.3168
   6.900   1.1113   0.00905   0.00397  -0.0799  0.0038  0.7632  -4.1217   0.0000   0.0000   0.0000   0.3150
   7.000   1.1218   0.00912   0.00405  -0.0798  0.0038  0.7721  -4.2046   0.0000   0.0000   0.0000   0.3141
   7.100   1.1322   0.00918   0.00413  -0.0797  0.0038  0.7800  -4.2879   0.0000   0.0000   0.0000   0.3133
   7.200   1.1426   0.00924   0.00422  -0.0796  0.0038  0.7874  -4.3718   0.0000   0.0000   0.0000   0.3124
   7.300   1.1531   0.00932   0.00430  -0.0795  0.0037  0.7929  -4.4563   0.0000   0.0000   0.0000   0.3116
   7.400   1.1635   0.00939   0.00439  -0.0794  0.0037  0.7974  -4.5413   0.0000   0.0000   0.0000   0.3107
   7.500   1.1744   0.00939   0.00439  -0.0794  0.0040  0.8033  -4.6160   0.0000   0.0000   0.0000   0.3100
   7.600   1.1848   0.00945   0.00447  -0.0793  0.0040  0.8183  -4.7013   0.0000   0.0000   0.0000   0.3092
   7.700   1.1950   0.00950   0.00455  -0.0792  0.0040  0.8339  -4.7871   0.0000   0.0000   0.0000   0.3084
   7.800   1.2053   0.00957   0.00464  -0.0790  0.0040  0.8433  -4.8740   0.0000   0.0000   0.0000   0.3076
   7.900   1.2155   0.00965   0.00473  -0.0789  0.0040  0.8478  -4.9618   0.0000   0.0000   0.0000   0.3068
   8.000   1.2258   0.00974   0.00483  -0.0788  0.0039  0.8530  -5.0503   0.0000   0.0000   0.0000   0.3060
   8.100   1.2360   0.00981   0.00493  -0.0786  0.0039  0.8692  -5.1390   0.0000   0.0000   0.0000   0.3052
   8.200   1.2460   0.00988   0.00503  -0.0784  0.0039  0.8835  -5.2275   0.0000   0.0000   0.0000   0.3044
   8.300   1.2560   0.00996   0.00513  -0.0783  0.0039  0.8937  -5.3168   0.0000   0.0000   0.0000   0.3036
   8.400   1.2661   0.01005   0.00523  -0.0781  0.0039  0.9021  -5.4066   0.0000   0.0000   0.0000   0.3028
   8.500   1.2754   0.01010   0.00533  -0.0777  0.0038  0.9218  -5.4941   0.0000   0.0000   0.0000   0.3020
   8.600   1.2853   0.01008   0.00543  -0.0775  0.0038  1.0000  -5.6435   0.0000   0.0000   0.0000   0.3012
   8.700   1.2954   0.01019   0.00554  -0.0774  0.0038  1.0000  -5.8102   0.0000   0.0000   0.0000   0.3005
   8.800   1.3056   0.01029   0.00565  -0.0772  0.0038  1.0000  -5.9786   0.0000   0.0000   0.0000   0.2998
   8.900   1.3157   0.01040   0.00576  -0.0771  0.0038  1.0000  -6.1487   0.0000   0.0000   0.0000   0.2991
   9.000   1.3257   0.01051   0.00587  -0.0769  0.0038  1.0000  -6.3206   0.0000   0.0000   0.0000   0.2983
   9.100   1.3358   0.01062   0.00599  -0.0768  0.0037  1.0000  -6.4942   0.0000   0.0000   0.0000   0.2976
   9.200   1.3458   0.01074   0.00610  -0.0766  0.0037  1.0000  -6.6695   0.0000   0.0000   0.0000   0.2969
   9.300   1.3557   0.01085   0.00622  -0.0764  0.0037  1.0000  -6.8464   0.0000   0.0000   0.0000   0.2962
   9.400   1.3657   0.01097   0.00635  -0.0763  0.0037  1.0000  -7.0249   0.0000   0.0000   0.0000   0.2956
   9.500   1.3756   0.01109   0.00647  -0.0761  0.0037  1.0000  -7.2051   0.0000   0.0000   0.0000   0.2949
   9.600   1.3854   0.01122   0.00660  -0.0759  0.0036  1.0000  -7.3868   0.0000   0.0000   0.0000   0.2942
   9.700   1.3952   0.01134   0.00673  -0.0757  0.0036  1.0000  -7.5701   0.0000   0.0000   0.0000   0.2935
   9.800   1.4050   0.01147   0.00686  -0.0755  0.0036  1.0000  -7.7550   0.0000   0.0000   0.0000   0.2928
   9.900   1.4148   0.01160   0.00699  -0.0753  0.0036  1.0000  -7.9413   0.0000   0.0000   0.0000   0.2922
  10.000   1.4245   0.01173   0.00713  -0.0751  0.0036  1.0000  -8.1291   0.0000   0.0000   0.0000   0.2915
  10.100   1.4341   0.01187   0.00727  -0.0749  0.0036  1.0000  -8.3183   0.0000   0.0000   0.0000   0.2908
  10.200   1.4437   0.01201   0.00742  -0.0746  0.0036  1.0000  -8.5089   0.0000   0.0000   0.0000   0.2902
  10.300   1.4533   0.01215   0.00756  -0.0744  0.0035  1.0000  -8.7009   0.0000   0.0000   0.0000   0.2895
  10.400   1.4615   0.01243   0.00791  -0.0739  0.0034  1.0000  -8.8653   0.0000   0.0000   0.0000   0.2887
  10.500   1.4705   0.01262   0.00812  -0.0736  0.0034  1.0000  -9.0515   0.0000   0.0000   0.0000   0.2880
  10.600   1.4796   0.01281   0.00831  -0.0733  0.0033  1.0000  -9.2409   0.0000   0.0000   0.0000   0.2873
  10.700   1.4887   0.01299   0.00850  -0.0730  0.0033  1.0000  -9.4323   0.0000   0.0000   0.0000   0.2867
  10.800   1.4977   0.01317   0.00870  -0.0726  0.0033  1.0000  -9.6253   0.0000   0.0000   0.0000   0.2860
  10.900   1.5067   0.01335   0.00889  -0.0723  0.0033  1.0000  -9.8196   0.0000   0.0000   0.0000   0.2853
  11.000   1.5156   0.01354   0.00909  -0.0720  0.0032  1.0000  -10.0150   0.0000   0.0000   0.0000   0.2846
  11.100   1.5244   0.01372   0.00929  -0.0716  0.0032  1.0000  -10.2115   0.0000   0.0000   0.0000   0.2840
  11.200   1.5331   0.01392   0.00950  -0.0713  0.0032  1.0000  -10.4087   0.0000   0.0000   0.0000   0.2833
  11.300   1.5418   0.01411   0.00971  -0.0709  0.0032  1.0000  -10.6068   0.0000   0.0000   0.0000   0.2826
  11.400   1.5503   0.01431   0.00993  -0.0705  0.0032  1.0000  -10.8054   0.0000   0.0000   0.0000   0.2820
  11.500   1.5588   0.01452   0.01015  -0.0701  0.0032  1.0000  -11.0046   0.0000   0.0000   0.0000   0.2813
  11.600   1.5672   0.01473   0.01037  -0.0697  0.0032  1.0000  -11.2043   0.0000   0.0000   0.0000   0.2806
  11.700   1.5754   0.01495   0.01060  -0.0693  0.0032  1.0000  -11.4042   0.0000   0.0000   0.0000   0.2799
  11.800   1.5836   0.01517   0.01084  -0.0688  0.0031  1.0000  -11.6043   0.0000   0.0000   0.0000   0.2793
  11.900   1.5916   0.01539   0.01108  -0.0684  0.0031  1.0000  -11.8045   0.0000   0.0000   0.0000   0.2786
  12.000   1.5995   0.01562   0.01133  -0.0679  0.0031  1.0000  -12.0046   0.0000   0.0000   0.0000   0.2779
  12.100   1.6072   0.01586   0.01159  -0.0674  0.0031  1.0000  -12.2044   0.0000   0.0000   0.0000   0.2772
  12.200   1.6148   0.01611   0.01185  -0.0668  0.0031  1.0000  -12.4038   0.0000   0.0000   0.0000   0.2765
  12.300   1.6223   0.01636   0.01213  -0.0663  0.0031  1.0000  -12.6025   0.0000   0.0000   0.0000   0.2758
  12.400   1.6295   0.01662   0.01241  -0.0657  0.0031  1.0000  -12.8005   0.0000   0.0000   0.0000   0.2751
  12.500   1.6366   0.01689   0.01269  -0.0651  0.0031  1.0000  -12.9975   0.0000   0.0000   0.0000   0.2744
  12.600   1.6434   0.01717   0.01299  -0.0645  0.0031  1.0000  -13.1933   0.0000   0.0000   0.0000   0.2736
  12.700   1.6501   0.01745   0.01330  -0.0638  0.0031  1.0000  -13.3876   0.0000   0.0000   0.0000   0.2729
  12.800   1.6565   0.01774   0.01362  -0.0631  0.0030  1.0000  -13.5801   0.0000   0.0000   0.0000   0.2721
  12.900   1.6627   0.01804   0.01394  -0.0624  0.0030  1.0000  -13.7706   0.0000   0.0000   0.0000   0.2714
  13.000   1.6685   0.01836   0.01428  -0.0616  0.0030  1.0000  -13.9585   0.0000   0.0000   0.0000   0.2706
  13.100   1.6741   0.01868   0.01463  -0.0608  0.0030  1.0000  -14.1437   0.0000   0.0000   0.0000   0.2698
  13.200   1.6793   0.01901   0.01499  -0.0599  0.0030  1.0000  -14.3254   0.0000   0.0000   0.0000   0.2690
  13.300   1.6836   0.01934   0.01535  -0.0589  0.0030  1.0000  -14.4972   0.0000   0.0000   0.0000   0.2681
  13.400   1.6863   0.01967   0.01570  -0.0575  0.0030  1.0000  -14.6515   0.0000   0.0000   0.0000   0.2671
  13.500   1.6880   0.01999   0.01606  -0.0560  0.0030  1.0000  -14.7941   0.0000   0.0000   0.0000   0.2660
  13.600   1.6897   0.02034   0.01643  -0.0545  0.0030  1.0000  -14.9361   0.0000   0.0000   0.0000   0.2649
  13.700   1.6912   0.02070   0.01683  -0.0530  0.0030  1.0000  -15.0762   0.0000   0.0000   0.0000   0.2638
  13.800   1.6920   0.02109   0.01725  -0.0514  0.0030  1.0000  -15.2078   0.0000   0.0000   0.0000   0.2627
  13.900   1.6932   0.02151   0.01770  -0.0500  0.0030  1.0000  -15.3437   0.0000   0.0000   0.0000   0.2617
  14.000   1.6946   0.02195   0.01818  -0.0487  0.0030  1.0000  -15.4820   0.0000   0.0000   0.0000   0.2607
  14.100   1.6950   0.02243   0.01869  -0.0472  0.0030  1.0000  -15.6071   0.0000   0.0000   0.0000   0.2597
  14.200   1.6951   0.02293   0.01923  -0.0458  0.0030  1.0000  -15.7283   0.0000   0.0000   0.0000   0.2586
  14.300   1.6952   0.02347   0.01981  -0.0444  0.0030  1.0000  -15.8486   0.0000   0.0000   0.0000   0.2576
  14.400   1.6945   0.02405   0.02043  -0.0430  0.0030  1.0000  -15.9580   0.0000   0.0000   0.0000   0.2566
  14.500   1.6942   0.02467   0.02110  -0.0417  0.0029  1.0000  -16.0711   0.0000   0.0000   0.0000   0.2557
  14.600   1.6927   0.02535   0.02182  -0.0403  0.0029  1.0000  -16.1691   0.0000   0.0000   0.0000   0.2547
  14.700   1.6905   0.02608   0.02260  -0.0389  0.0029  1.0000  -16.2564   0.0000   0.0000   0.0000   0.2537
  14.800   1.6890   0.02684   0.02341  -0.0377  0.0029  1.0000  -16.3514   0.0000   0.0000   0.0000   0.2528
  14.900   1.6872   0.02764   0.02425  -0.0364  0.0029  1.0000  -16.4396   0.0000   0.0000   0.0000   0.2519
  15.000   1.6851   0.02851   0.02518  -0.0352  0.0029  1.0000  -16.5205   0.0000   0.0000   0.0000   0.2511
  15.100   1.6796   0.02953   0.02625  -0.0339  0.0029  1.0000  -16.5604   0.0000   0.0000   0.0000   0.2501
  15.200   1.6754   0.03060   0.02738  -0.0327  0.0029  1.0000  -16.6122   0.0000   0.0000   0.0000   0.2493
  15.300   1.6713   0.03176   0.02861  -0.0316  0.0029  1.0000  -16.6596   0.0000   0.0000   0.0000   0.2485
  15.400   1.6661   0.03304   0.02996  -0.0305  0.0029  1.0000  -16.6891   0.0000   0.0000   0.0000   0.2477
  15.500   1.6578   0.03450   0.03148  -0.0294  0.0029  1.0000  -16.6799   0.0000   0.0000   0.0000   0.2470
  15.600   1.6503   0.03607   0.03313  -0.0285  0.0029  1.0000  -16.6712   0.0000   0.0000   0.0000   0.2463
  15.700   1.6417   0.03783   0.03498  -0.0276  0.0029  1.0000  -16.6383   0.0000   0.0000   0.0000   0.2456
  15.800   1.6304   0.03976   0.03698  -0.0269  0.0030  1.0000  -16.5774   0.0000   0.0000   0.0000   0.2451
  15.900   1.6186   0.04195   0.03926  -0.0262  0.0030  1.0000  -16.4900   0.0000   0.0000   0.0000   0.2446
  16.000   1.6048   0.04438   0.04179  -0.0258  0.0030  1.0000  -16.3698   0.0000   0.0000   0.0000   0.2443
  16.100   1.5905   0.04672   0.04422  -0.0256  0.0030  1.0000  -16.2573   0.0000   0.0000   0.0000   0.2441
  16.200   1.5731   0.04982   0.04743  -0.0257  0.0030  1.0000  -16.0646   0.0000   0.0000   0.0000   0.2441
  16.300   1.5576   0.05282   0.05051  -0.0261  0.0030  1.0000  -15.9223   0.0000   0.0000   0.0000   0.2443
  16.400   1.5371   0.05685   0.05467  -0.0270  0.0030  1.0000  -15.6639   0.0000   0.0000   0.0000   0.2449
  16.500   1.5207   0.06051   0.05842  -0.0282  0.0030  1.0000  -15.4915   0.0000   0.0000   0.0000   0.2456
  16.600   1.4994   0.06521   0.06323  -0.0300  0.0031  1.0000  -15.2082   0.0000   0.0000   0.0000   0.2469
  16.700   1.4838   0.06933   0.06743  -0.0321  0.0031  1.0000  -15.0340   0.0000   0.0000   0.0000   0.2482
  16.800   1.4675   0.07379   0.07197  -0.0345  0.0031  1.0000  -14.8368   0.0000   0.0000   0.0000   0.2499
  16.900   1.4491   0.07878   0.07706  -0.0372  0.0031  1.0000  -14.5864   0.0000   0.0000   0.0000   0.2519
  17.000   1.4363   0.08306   0.08141  -0.0400  0.0031  1.0000  -14.4427   0.0000   0.0000   0.0000   0.2538
  17.100   1.4213   0.08777   0.08618  -0.0429  0.0031  1.0000  -14.2443   0.0000   0.0000   0.0000   0.2559
  17.200   1.4080   0.09230   0.09078  -0.0459  0.0031  1.0000  -14.0754   0.0000   0.0000   0.0000   0.2581
  17.300   1.3951   0.09674   0.09528  -0.0489  0.0031  1.0000  -13.9105   0.0000   0.0000   0.0000   0.2604
  17.400   1.3832   0.10112   0.09970  -0.0518  0.0031  1.0000  -13.7578   0.0000   0.0000   0.0000   0.2626
  17.500   1.3682   0.10593   0.10457  -0.0550  0.0031  1.0000  -13.5336   0.0000   0.0000   0.0000   0.2652
  17.600   1.3611   0.10954   0.10821  -0.0576  0.0031  1.0000  -13.4773   0.0000   0.0000   0.0000   0.2671
  17.700   1.3466   0.11433   0.11306  -0.0609  0.0031  1.0000  -13.2490   0.0000   0.0000   0.0000   0.2698
  17.800   1.3337   0.11889   0.11767  -0.0640  0.0031  1.0000  -13.0481   0.0000   0.0000   0.0000   0.2725
  17.900   1.3278   0.12214   0.12094  -0.0666  0.0031  1.0000  -13.0040   0.0000   0.0000   0.0000   0.2744
  18.000   1.3141   0.12623   0.12507  -0.0698  0.0031  1.0000  -12.7671   0.0000   0.0000   0.0000   0.2773
  18.100   1.3005   0.13065   0.12955  -0.0732  0.0031  1.0000  -12.5247   0.0000   0.0000   0.0000   0.2803
  18.200   1.2956   0.13398   0.13289  -0.0756  0.0031  1.0000  -12.4858   0.0000   0.0000   0.0000   0.2823
  18.300   1.2825   0.13886   0.13782  -0.0790  0.0031  1.0000  -12.2369   0.0000   0.0000   0.0000   0.2854
  18.400   1.2672   0.14446   0.14348  -0.0829  0.0031  1.0000  -11.9174   0.0000   0.0000   0.0000   0.2891
  18.500   1.2607   0.14855   0.14759  -0.0855  0.0031  1.0000  -11.8209   0.0000   0.0000   0.0000   0.2915
  18.600   1.2477   0.15419   0.15325  -0.0891  0.0031  1.0000  -11.5455   0.0000   0.0000   0.0000   0.2951
  18.700   1.2275   0.16180   0.16092  -0.0939  0.0031  1.0000  -11.0578   0.0000   0.0000   0.0000   0.3002
  18.800   1.2117   0.16946   0.16860  -0.0982  0.0031  1.0000  -10.7033   0.0000   0.0000   0.0000   0.3049
  18.900   1.1851   0.18009   0.17927  -0.1045  0.0031  1.0000  -10.0072   0.0000   0.0000   0.0000   0.3122


