xflr5 v6.61

 Calculated polar for: NASA/LANGLEY MS(1)-0313 AIRFOIL

 1 1 Reynolds number fixed          Mach number fixed         

 xtrf =   1.000 (top)        1.000 (bottom)
 Mach =   0.000     Re =    18.000 e 6     Ncrit =   9.000

  alpha     CL        CD       CDp       Cm    Top Xtr Bot Xtr   Cpmin    Chinge    XCp    
 ------- -------- --------- --------- -------- ------- ------- -------- --------- ---------
  -5.000  -0.1417   0.00516   0.00117  -0.0888  0.6741  0.0243  -1.9366   0.0000   0.0000   0.0000  -0.3944
  -4.500  -0.0874   0.00520   0.00110  -0.0885  0.6255  0.0250  -1.6326   0.0000   0.0000   0.0000  -0.7871
  -4.000  -0.0363   0.00543   0.00107  -0.0875  0.5350  0.0294  -1.3535   0.0000   0.0000   0.0000  -2.2138
  -3.500   0.0105   0.00587   0.00110  -0.0858  0.3733  0.0364  -1.1011   0.0000   0.0000   0.0000   8.5394
  -3.000   0.0679   0.00578   0.00104  -0.0860  0.3709  0.0404  -0.8808   0.0000   0.0000   0.0000   1.5349
  -2.500   0.1206   0.00587   0.00102  -0.0854  0.3048  0.0633  -0.7017   0.0000   0.0000   0.0000   0.9666
  -2.000   0.1757   0.00588   0.00099  -0.0853  0.2712  0.0829  -0.5270   0.0000   0.0000   0.0000   0.7394
  -1.500   0.2296   0.00593   0.00101  -0.0849  0.2275  0.1140  -0.5046   0.0000   0.0000   0.0000   0.6216
  -1.000   0.2843   0.00591   0.00101  -0.0847  0.1978  0.1568  -0.5897   0.0000   0.0000   0.0000   0.5483
  -0.500   0.3390   0.00591   0.00103  -0.0845  0.1725  0.1999  -0.6965   0.0000   0.0000   0.0000   0.4987
   0.000   0.3932   0.00581   0.00106  -0.0843  0.1481  0.2896  -0.8056   0.0000   0.0000   0.0000   0.4630
   0.500   0.4465   0.00546   0.00106  -0.0841  0.1244  0.4742  -0.9167   0.0000   0.0000   0.0000   0.4364
   1.000   0.5005   0.00546   0.00114  -0.0838  0.1099  0.5477  -1.0321   0.0000   0.0000   0.0000   0.4149
   1.500   0.5560   0.00552   0.00122  -0.0837  0.0993  0.5748  -1.1528   0.0000   0.0000   0.0000   0.3974
   2.000   0.6110   0.00561   0.00132  -0.0835  0.0956  0.5973  -1.2763   0.0000   0.0000   0.0000   0.3831
   2.500   0.6651   0.00579   0.00144  -0.0831  0.0874  0.6086  -1.4014   0.0000   0.0000   0.0000   0.3708
   3.000   0.7197   0.00590   0.00156  -0.0828  0.0799  0.6242  -1.5301   0.0000   0.0000   0.0000   0.3605
   3.500   0.7743   0.00600   0.00168  -0.0826  0.0746  0.6442  -1.6786   0.0000   0.0000   0.0000   0.3515
   4.000   0.8288   0.00613   0.00180  -0.0822  0.0744  0.6498  -1.8333   0.0000   0.0000   0.0000   0.3436
   4.500   0.8829   0.00627   0.00193  -0.0819  0.0742  0.6544  -1.9911   0.0000   0.0000   0.0000   0.3366
   5.000   0.9365   0.00641   0.00207  -0.0814  0.0738  0.6642  -2.1525   0.0000   0.0000   0.0000   0.3303
   5.500   0.9898   0.00656   0.00222  -0.0809  0.0735  0.6711  -2.3172   0.0000   0.0000   0.0000   0.3245
   6.000   1.0425   0.00672   0.00237  -0.0803  0.0732  0.6739  -2.4848   0.0000   0.0000   0.0000   0.3192
   6.500   1.0945   0.00690   0.00254  -0.0795  0.0724  0.6750  -2.6551   0.0000   0.0000   0.0000   0.3143
   7.000   1.1402   0.00735   0.00287  -0.0775  0.0529  0.6823  -2.8199   0.0000   0.0000   0.0000   0.3090
   8.000   1.2332   0.00805   0.00348  -0.0740  0.0419  0.6971  -3.3027   0.0000   0.0000   0.0000   0.2997
   8.500   1.2752   0.00856   0.00390  -0.0714  0.0325  0.6995  -3.5416   0.0000   0.0000   0.0000   0.2950
   9.000   1.3186   0.00894   0.00425  -0.0690  0.0248  0.7040  -3.7909   0.0000   0.0000   0.0000   0.2907
   9.500   1.3471   0.00919   0.00451  -0.0635  0.0240  0.7156  -4.0089   0.0000   0.0000   0.0000   0.2848
  10.000   1.3808   0.00969   0.00498  -0.0592  0.0200  0.7226  -4.2780   0.0000   0.0000   0.0000   0.2798
  10.500   1.4253   0.00986   0.00519  -0.0572  0.0225  0.7249  -4.6121   0.0000   0.0000   0.0000   0.2763
  11.000   1.4608   0.01045   0.00574  -0.0536  0.0180  0.7357  -4.9198   0.0000   0.0000   0.0000   0.2721
  11.500   1.4989   0.01090   0.00620  -0.0505  0.0134  0.7455  -5.2620   0.0000   0.0000   0.0000   0.2683
  12.500   1.5645   0.01188   0.00720  -0.0426  0.0116  0.7589  -6.1877   0.0000   0.0000   0.0000   0.2602
  13.000   1.5819   0.01312   0.00841  -0.0364  0.0045  0.7713  -6.5840   0.0000   0.0000   0.0000   0.2551
  13.500   1.6063   0.01397   0.00927  -0.0315  0.0037  0.7756  -7.0364   0.0000   0.0000   0.0000   0.2508
  14.000   1.6318   0.01482   0.01015  -0.0270  0.0031  0.7909  -7.5082   0.0000   0.0000   0.0000   0.2469
  14.500   1.6545   0.01570   0.01106  -0.0223  0.0026  0.7992  -7.9765   0.0000   0.0000   0.0000   0.2429
  15.000   1.6772   0.01665   0.01206  -0.0178  0.0022  0.8151  -8.4559   0.0000   0.0000   0.0000   0.2391
  15.500   1.7019   0.01763   0.01310  -0.0139  0.0021  0.8304  -8.9606   0.0000   0.0000   0.0000   0.2356
  16.000   1.7216   0.01876   0.01431  -0.0095  0.0019  0.8605  -9.4437   0.0000   0.0000   0.0000   0.2320
  16.500   1.7373   0.01982   0.01567  -0.0047  0.0019  1.0000  -9.9089   0.0000   0.0000   0.0000   0.2282
  17.000   1.7555   0.02126   0.01715  -0.0008  0.0019  1.0000  -10.4000   0.0000   0.0000   0.0000   0.2249
  17.500   1.7744   0.02279   0.01871   0.0028  0.0019  1.0000  -10.9058   0.0000   0.0000   0.0000   0.2218
  18.000   1.7880   0.02463   0.02060   0.0065  0.0019  1.0000  -11.3809   0.0000   0.0000   0.0000   0.2186
  18.500   1.7997   0.02669   0.02270   0.0101  0.0019  1.0000  -11.8487   0.0000   0.0000   0.0000   0.2155
  19.000   1.8098   0.02903   0.02510   0.0133  0.0019  1.0000  -12.3100   0.0000   0.0000   0.0000   0.2126
  19.500   1.8183   0.03166   0.02779   0.0163  0.0019  1.0000  -12.7630   0.0000   0.0000   0.0000   0.2098
  20.000   1.8247   0.03463   0.03083   0.0188  0.0019  1.0000  -13.2036   0.0000   0.0000   0.0000   0.2072
  20.500   1.8287   0.03798   0.03425   0.0210  0.0018  1.0000  -13.6264   0.0000   0.0000   0.0000   0.2047
  21.000   1.8298   0.04187   0.03821   0.0226  0.0018  1.0000  -14.0262   0.0000   0.0000   0.0000   0.2025
  21.500   1.8281   0.04633   0.04276   0.0236  0.0018  1.0000  -14.4017   0.0000   0.0000   0.0000   0.2006
  22.000   1.8240   0.05139   0.04791   0.0238  0.0018  1.0000  -14.7521   0.0000   0.0000   0.0000   0.1990
  22.500   1.8121   0.05768   0.05431   0.0230  0.0018  1.0000  -15.0248   0.0000   0.0000   0.0000   0.1979
  23.000   1.7978   0.06487   0.06162   0.0211  0.0018  1.0000  -15.2645   0.0000   0.0000   0.0000   0.1973
  23.500   1.7725   0.07415   0.07105   0.0174  0.0018  1.0000  -15.3790   0.0000   0.0000   0.0000   0.1977
  24.000   1.7286   0.08706   0.08415   0.0106  0.0018  1.0000  -15.2704   0.0000   0.0000   0.0000   0.1996
  24.500   1.6623   0.10481   0.10214  -0.0001  0.0018  1.0000  -14.8687   0.0000   0.0000   0.0000   0.2040


