xflr5 v6.61

 Calculated polar for: NACA 65(1)-412

 1 1 Reynolds number fixed          Mach number fixed         

 xtrf =   1.000 (top)        1.000 (bottom)
 Mach =   0.000     Re =     7.350 e 6     Ncrit =   7.000

  alpha     CL        CD       CDp       Cm    Top Xtr Bot Xtr   Cpmin    Chinge    XCp    
 ------- -------- --------- --------- -------- ------- ------- -------- --------- ---------
  -5.000  -0.2220   0.00612   0.00154  -0.0735  0.6870  0.0065  -3.1039   0.0000   0.0000   0.0000  -0.0894
  -4.900  -0.2106   0.00609   0.00150  -0.0736  0.6846  0.0066  -3.0248   0.0000   0.0000   0.0000  -0.1082
  -4.800  -0.1992   0.00606   0.00146  -0.0738  0.6820  0.0067  -2.9464   0.0000   0.0000   0.0000  -0.1292
  -4.700  -0.1878   0.00603   0.00143  -0.0739  0.6793  0.0071  -2.8669   0.0000   0.0000   0.0000  -0.1528
  -4.600  -0.1764   0.00598   0.00138  -0.0741  0.6765  0.0080  -2.7827   0.0000   0.0000   0.0000  -0.1794
  -4.500  -0.1650   0.00593   0.00135  -0.0743  0.6737  0.0088  -2.6926   0.0000   0.0000   0.0000  -0.2098
  -4.400  -0.1535   0.00609   0.00163  -0.0745  0.6708  0.0093  -2.4667   0.0000   0.0000   0.0000  -0.2454
  -4.300  -0.1420   0.00607   0.00161  -0.0747  0.6679  0.0094  -2.3892   0.0000   0.0000   0.0000  -0.2863
  -4.200  -0.1305   0.00603   0.00156  -0.0748  0.6649  0.0094  -2.3193   0.0000   0.0000   0.0000  -0.3343
  -4.100  -0.1190   0.00597   0.00149  -0.0750  0.6618  0.0094  -2.2560   0.0000   0.0000   0.0000  -0.3917
  -4.000  -0.1075   0.00592   0.00142  -0.0751  0.6586  0.0094  -2.1925   0.0000   0.0000   0.0000  -0.4615
  -3.900  -0.0960   0.00587   0.00137  -0.0753  0.6555  0.0095  -2.1292   0.0000   0.0000   0.0000  -0.5481
  -3.800  -0.0844   0.00581   0.00129  -0.0755  0.6527  0.0096  -2.0686   0.0000   0.0000   0.0000  -0.6586
  -3.700  -0.0729   0.00576   0.00122  -0.0756  0.6508  0.0099  -2.0083   0.0000   0.0000   0.0000  -0.8043
  -3.600  -0.0613   0.00572   0.00118  -0.0758  0.6505  0.0100  -1.9454   0.0000   0.0000   0.0000  -1.0057
  -3.500  -0.0497   0.00568   0.00114  -0.0760  0.6503  0.0100  -1.8823   0.0000   0.0000   0.0000  -1.3013
  -3.400  -0.0381   0.00564   0.00110  -0.0761  0.6500  0.0100  -1.8199   0.0000   0.0000   0.0000  -1.7769
  -3.300  -0.0265   0.00561   0.00107  -0.0763  0.6496  0.0099  -1.7581   0.0000   0.0000   0.0000  -2.6691
  -3.200  -0.0149   0.00557   0.00103  -0.0765  0.6492  0.0099  -1.6969   0.0000   0.0000   0.0000  -4.9508
  -3.100  -0.0033   0.00554   0.00100  -0.0767  0.6485  0.0099  -1.6364   0.0000   0.0000   0.0000  -23.2244
  -3.000   0.0083   0.00551   0.00097  -0.0768  0.6472  0.0099  -1.5767   0.0000   0.0000   0.0000   9.6648
  -2.900   0.0197   0.00549   0.00094  -0.0770  0.6440  0.0099  -1.5179   0.0000   0.0000   0.0000   4.1936
  -2.800   0.0310   0.00550   0.00091  -0.0771  0.6364  0.0099  -1.4603   0.0000   0.0000   0.0000   2.7639
  -2.700   0.0421   0.00553   0.00089  -0.0772  0.6258  0.0099  -1.4038   0.0000   0.0000   0.0000   2.1013
  -2.600   0.0534   0.00555   0.00087  -0.0773  0.6133  0.0099  -1.3477   0.0000   0.0000   0.0000   1.7118
  -2.500   0.0648   0.00554   0.00085  -0.0775  0.6014  0.0100  -1.2920   0.0000   0.0000   0.0000   1.4558
  -2.400   0.0764   0.00552   0.00082  -0.0776  0.5997  0.0100  -1.2370   0.0000   0.0000   0.0000   1.2749
  -2.300   0.0880   0.00550   0.00080  -0.0778  0.5985  0.0101  -1.1834   0.0000   0.0000   0.0000   1.1415
  -2.200   0.0996   0.00548   0.00077  -0.0780  0.5972  0.0102  -1.1339   0.0000   0.0000   0.0000   1.0391
  -2.100   0.1110   0.00544   0.00074  -0.0781  0.5932  0.0131  -1.0961   0.0000   0.0000   0.0000   0.9586
  -2.000   0.1216   0.00553   0.00075  -0.0781  0.5724  0.0136  -1.0427   0.0000   0.0000   0.0000   0.8967
  -1.900   0.1327   0.00557   0.00074  -0.0782  0.5491  0.0140  -0.9888   0.0000   0.0000   0.0000   0.8433
  -1.800   0.1431   0.00568   0.00076  -0.0782  0.5269  0.0144  -0.9370   0.0000   0.0000   0.0000   0.7996
  -0.800   0.2409   0.00758   0.00124  -0.0772  0.0410  0.0266  -0.5297   0.0000   0.0000   0.0000   0.5707
  -0.700   0.2522   0.00760   0.00125  -0.0773  0.0389  0.0268  -0.5350   0.0000   0.0000   0.0000   0.5567
  -0.600   0.2634   0.00761   0.00126  -0.0774  0.0369  0.0270  -0.5402   0.0000   0.0000   0.0000   0.5439
  -0.500   0.2747   0.00762   0.00126  -0.0775  0.0349  0.0271  -0.5454   0.0000   0.0000   0.0000   0.5321
  -0.400   0.2860   0.00764   0.00127  -0.0776  0.0330  0.0273  -0.5507   0.0000   0.0000   0.0000   0.5213
  -0.300   0.2972   0.00765   0.00127  -0.0777  0.0311  0.0280  -0.5559   0.0000   0.0000   0.0000   0.5112
  -0.200   0.3085   0.00766   0.00128  -0.0778  0.0292  0.0290  -0.5612   0.0000   0.0000   0.0000   0.5019
  -0.100   0.3198   0.00767   0.00129  -0.0780  0.0274  0.0300  -0.5664   0.0000   0.0000   0.0000   0.4933
   0.000   0.3310   0.00768   0.00130  -0.0781  0.0255  0.0311  -0.5716   0.0000   0.0000   0.0000   0.4852
   0.100   0.3423   0.00769   0.00131  -0.0782  0.0236  0.0323  -0.5769   0.0000   0.0000   0.0000   0.4777
   0.200   0.3535   0.00770   0.00132  -0.0783  0.0228  0.0332  -0.5827   0.0000   0.0000   0.0000   0.4706
   0.300   0.3647   0.00772   0.00133  -0.0784  0.0224  0.0341  -0.5885   0.0000   0.0000   0.0000   0.4640
   0.400   0.3760   0.00773   0.00134  -0.0785  0.0221  0.0350  -0.5944   0.0000   0.0000   0.0000   0.4578
   0.500   0.3872   0.00774   0.00135  -0.0786  0.0218  0.0357  -0.6003   0.0000   0.0000   0.0000   0.4519
   0.600   0.3984   0.00776   0.00137  -0.0787  0.0215  0.0363  -0.6062   0.0000   0.0000   0.0000   0.4464
   0.700   0.4096   0.00778   0.00138  -0.0789  0.0210  0.0348  -0.6121   0.0000   0.0000   0.0000   0.4412
   0.800   0.4202   0.00786   0.00143  -0.0788  0.0112  0.0361  -0.6176   0.0000   0.0000   0.0000   0.4362
   0.900   0.4313   0.00787   0.00145  -0.0789  0.0105  0.0375  -0.6234   0.0000   0.0000   0.0000   0.4315
   1.000   0.4425   0.00789   0.00146  -0.0790  0.0103  0.0390  -0.6293   0.0000   0.0000   0.0000   0.4270
   1.100   0.4536   0.00791   0.00148  -0.0791  0.0101  0.0404  -0.6351   0.0000   0.0000   0.0000   0.4227
   1.200   0.4647   0.00793   0.00149  -0.0792  0.0099  0.0420  -0.6410   0.0000   0.0000   0.0000   0.4187
   1.300   0.4758   0.00795   0.00151  -0.0793  0.0097  0.0435  -0.6468   0.0000   0.0000   0.0000   0.4148
   1.400   0.4869   0.00797   0.00153  -0.0794  0.0095  0.0451  -0.6526   0.0000   0.0000   0.0000   0.4111
   1.500   0.4980   0.00799   0.00155  -0.0795  0.0093  0.0467  -0.6584   0.0000   0.0000   0.0000   0.4076
   1.600   0.5091   0.00801   0.00156  -0.0796  0.0091  0.0483  -0.7035   0.0000   0.0000   0.0000   0.4042
   1.700   0.5201   0.00803   0.00158  -0.0797  0.0088  0.0500  -0.7601   0.0000   0.0000   0.0000   0.4010
   1.800   0.5312   0.00806   0.00161  -0.0797  0.0085  0.0517  -0.8175   0.0000   0.0000   0.0000   0.3978
   1.900   0.5423   0.00807   0.00163  -0.0798  0.0081  0.0593  -0.8756   0.0000   0.0000   0.0000   0.3949
   2.300   0.5882   0.00726   0.00171  -0.0812  0.0059  0.4732  -1.0686   0.0000   0.0000   0.0000   0.3854
   2.800   0.6433   0.00727   0.00191  -0.0817  0.0060  0.5464  -1.3717   0.0000   0.0000   0.0000   0.3739
   2.900   0.6542   0.00730   0.00196  -0.0817  0.0060  0.5527  -1.4343   0.0000   0.0000   0.0000   0.3718
   3.000   0.6652   0.00729   0.00200  -0.0818  0.0060  0.5827  -1.4976   0.0000   0.0000   0.0000   0.3698
   3.100   0.6760   0.00729   0.00205  -0.0819  0.0060  0.5965  -1.5615   0.0000   0.0000   0.0000   0.3678
   3.200   0.6869   0.00734   0.00211  -0.0819  0.0061  0.5999  -1.6260   0.0000   0.0000   0.0000   0.3659
   3.300   0.6977   0.00736   0.00216  -0.0820  0.0061  0.6216  -1.6912   0.0000   0.0000   0.0000   0.3640
   3.400   0.7086   0.00736   0.00222  -0.0820  0.0061  0.6378  -1.7570   0.0000   0.0000   0.0000   0.3622
   3.500   0.7193   0.00740   0.00228  -0.0821  0.0061  0.6446  -1.8247   0.0000   0.0000   0.0000   0.3604
   3.600   0.7300   0.00745   0.00233  -0.0821  0.0061  0.6469  -1.8934   0.0000   0.0000   0.0000   0.3587
   3.700   0.7407   0.00750   0.00239  -0.0821  0.0062  0.6481  -1.9627   0.0000   0.0000   0.0000   0.3570
   3.800   0.7514   0.00756   0.00245  -0.0821  0.0062  0.6489  -2.0326   0.0000   0.0000   0.0000   0.3553
   3.900   0.7620   0.00762   0.00251  -0.0820  0.0062  0.6515  -2.1032   0.0000   0.0000   0.0000   0.3537
   4.000   0.7726   0.00767   0.00257  -0.0820  0.0062  0.6572  -2.1744   0.0000   0.0000   0.0000   0.3521
   4.100   0.7832   0.00773   0.00264  -0.0820  0.0063  0.6629  -2.2463   0.0000   0.0000   0.0000   0.3505
   4.200   0.7938   0.00778   0.00270  -0.0820  0.0063  0.6678  -2.3189   0.0000   0.0000   0.0000   0.3490
   4.300   0.8043   0.00784   0.00277  -0.0820  0.0063  0.6719  -2.3920   0.0000   0.0000   0.0000   0.3475
   4.400   0.8148   0.00790   0.00284  -0.0819  0.0063  0.6754  -2.4658   0.0000   0.0000   0.0000   0.3461
   4.500   0.8252   0.00796   0.00291  -0.0819  0.0063  0.6783  -2.5402   0.0000   0.0000   0.0000   0.3447
   4.600   0.8356   0.00803   0.00299  -0.0818  0.0064  0.6808  -2.6152   0.0000   0.0000   0.0000   0.3433
   4.700   0.8459   0.00809   0.00306  -0.0818  0.0064  0.6828  -2.6909   0.0000   0.0000   0.0000   0.3419
   4.800   0.8562   0.00816   0.00313  -0.0817  0.0064  0.6841  -2.7671   0.0000   0.0000   0.0000   0.3406
   4.900   0.8665   0.00824   0.00321  -0.0816  0.0064  0.6847  -2.8439   0.0000   0.0000   0.0000   0.3393
   5.000   0.8767   0.00831   0.00329  -0.0815  0.0065  0.6844  -2.9212   0.0000   0.0000   0.0000   0.3380
   5.100   0.8869   0.00840   0.00337  -0.0814  0.0065  0.6830  -2.9991   0.0000   0.0000   0.0000   0.3367
   5.200   0.8970   0.00848   0.00345  -0.0813  0.0065  0.6810  -3.0776   0.0000   0.0000   0.0000   0.3354
   5.300   0.9071   0.00857   0.00353  -0.0812  0.0065  0.6798  -3.1566   0.0000   0.0000   0.0000   0.3342
   5.400   0.9171   0.00864   0.00362  -0.0811  0.0066  0.6845  -3.2361   0.0000   0.0000   0.0000   0.3330
   5.500   0.9271   0.00869   0.00371  -0.0809  0.0066  0.6964  -3.3161   0.0000   0.0000   0.0000   0.3318
   5.600   0.9413   0.00841   0.00328  -0.0820  0.0056  0.6974  -3.6496   0.0000   0.0000   0.0000   0.3315
   5.700   0.9516   0.00847   0.00333  -0.0820  0.0053  0.6979  -3.7610   0.0000   0.0000   0.0000   0.3304
   5.800   0.9617   0.00854   0.00339  -0.0819  0.0050  0.6984  -3.8627   0.0000   0.0000   0.0000   0.3293
   5.900   0.9716   0.00862   0.00346  -0.0818  0.0046  0.6987  -3.9625   0.0000   0.0000   0.0000   0.3282
   6.000   0.9813   0.00871   0.00354  -0.0816  0.0042  0.6992  -4.0601   0.0000   0.0000   0.0000   0.3271
   6.100   0.9911   0.00880   0.00362  -0.0815  0.0036  0.7024  -4.1580   0.0000   0.0000   0.0000   0.3260
   6.200   1.0012   0.00886   0.00369  -0.0814  0.0035  0.7065  -4.2523   0.0000   0.0000   0.0000   0.3250
   6.300   1.0111   0.00893   0.00376  -0.0813  0.0035  0.7111  -4.3471   0.0000   0.0000   0.0000   0.3240
   6.400   1.0211   0.00899   0.00383  -0.0811  0.0035  0.7154  -4.4424   0.0000   0.0000   0.0000   0.3229
   6.500   1.0310   0.00906   0.00389  -0.0810  0.0035  0.7195  -4.5383   0.0000   0.0000   0.0000   0.3219
   6.600   1.0409   0.00913   0.00397  -0.0809  0.0034  0.7231  -4.6348   0.0000   0.0000   0.0000   0.3210
   6.700   1.0507   0.00919   0.00404  -0.0808  0.0034  0.7265  -4.7319   0.0000   0.0000   0.0000   0.3200
   6.800   1.0605   0.00926   0.00411  -0.0806  0.0034  0.7298  -4.8296   0.0000   0.0000   0.0000   0.3190
   6.900   1.0702   0.00933   0.00419  -0.0805  0.0034  0.7328  -4.9278   0.0000   0.0000   0.0000   0.3181
   7.000   1.0799   0.00940   0.00426  -0.0803  0.0034  0.7358  -5.0266   0.0000   0.0000   0.0000   0.3171
   7.100   1.0895   0.00947   0.00434  -0.0801  0.0034  0.7385  -5.1258   0.0000   0.0000   0.0000   0.3162
   7.200   1.0990   0.00954   0.00441  -0.0799  0.0034  0.7408  -5.2256   0.0000   0.0000   0.0000   0.3152
   7.300   1.1085   0.00961   0.00449  -0.0797  0.0034  0.7427  -5.3259   0.0000   0.0000   0.0000   0.3143
   7.400   1.1179   0.00969   0.00457  -0.0795  0.0034  0.7442  -5.4267   0.0000   0.0000   0.0000   0.3134
   7.500   1.1273   0.00977   0.00465  -0.0793  0.0034  0.7453  -5.5279   0.0000   0.0000   0.0000   0.3125
   7.600   1.1366   0.00985   0.00473  -0.0790  0.0033  0.7463  -5.6296   0.0000   0.0000   0.0000   0.3116
   7.700   1.1454   0.00996   0.00486  -0.0787  0.0032  0.7470  -5.7348   0.0000   0.0000   0.0000   0.3106
   7.800   1.1543   0.01005   0.00495  -0.0784  0.0031  0.7477  -5.8382   0.0000   0.0000   0.0000   0.3097
   7.900   1.1633   0.01014   0.00504  -0.0781  0.0031  0.7482  -5.9415   0.0000   0.0000   0.0000   0.3088
   8.000   1.1722   0.01023   0.00513  -0.0778  0.0031  0.7487  -6.0448   0.0000   0.0000   0.0000   0.3079
   8.100   1.1811   0.01032   0.00523  -0.0775  0.0031  0.7500  -6.1484   0.0000   0.0000   0.0000   0.3070
   8.200   1.1898   0.01041   0.00532  -0.0771  0.0031  0.7538  -6.2522   0.0000   0.0000   0.0000   0.3061
   8.300   1.1986   0.01050   0.00541  -0.0768  0.0031  0.7584  -6.3562   0.0000   0.0000   0.0000   0.3052
   8.400   1.2072   0.01059   0.00550  -0.0764  0.0031  0.7632  -6.4604   0.0000   0.0000   0.0000   0.3043
   8.500   1.2157   0.01067   0.00560  -0.0761  0.0031  0.7678  -6.5647   0.0000   0.0000   0.0000   0.3034
   8.600   1.2241   0.01076   0.00569  -0.0757  0.0031  0.7722  -6.6691   0.0000   0.0000   0.0000   0.3025
   8.700   1.2324   0.01084   0.00579  -0.0752  0.0030  0.7766  -6.7736   0.0000   0.0000   0.0000   0.3016
   8.800   1.2406   0.01093   0.00589  -0.0748  0.0030  0.7806  -6.8779   0.0000   0.0000   0.0000   0.3007
   8.900   1.2486   0.01102   0.00599  -0.0743  0.0030  0.7844  -6.9821   0.0000   0.0000   0.0000   0.2998
   9.000   1.2564   0.01111   0.00609  -0.0738  0.0030  0.7881  -7.0862   0.0000   0.0000   0.0000   0.2989
   9.100   1.2641   0.01120   0.00619  -0.0733  0.0030  0.7911  -7.1899   0.0000   0.0000   0.0000   0.2980
   9.200   1.2717   0.01129   0.00630  -0.0727  0.0030  0.7934  -7.2933   0.0000   0.0000   0.0000   0.2971
   9.300   1.2790   0.01139   0.00640  -0.0721  0.0030  0.7950  -7.3963   0.0000   0.0000   0.0000   0.2961
   9.400   1.2862   0.01149   0.00650  -0.0715  0.0030  0.7963  -7.4987   0.0000   0.0000   0.0000   0.2952
   9.500   1.2928   0.01159   0.00660  -0.0707  0.0030  0.7973  -7.5989   0.0000   0.0000   0.0000   0.2942
   9.600   1.2896   0.01164   0.00667  -0.0679  0.0030  0.7984  -7.6436   0.0000   0.0000   0.0000   0.2920
   9.700   1.2899   0.01171   0.00676  -0.0658  0.0030  0.8003  -7.7081   0.0000   0.0000   0.0000   0.2902
   9.800   1.2937   0.01181   0.00686  -0.0645  0.0030  0.8064  -7.7931   0.0000   0.0000   0.0000   0.2889
   9.900   1.2986   0.01190   0.00697  -0.0634  0.0030  0.8132  -7.8845   0.0000   0.0000   0.0000   0.2878
  10.000   1.3040   0.01200   0.00709  -0.0624  0.0030  0.8195  -7.9792   0.0000   0.0000   0.0000   0.2867
  10.100   1.3096   0.01210   0.00720  -0.0615  0.0030  0.8255  -8.0757   0.0000   0.0000   0.0000   0.2856
  10.200   1.3153   0.01220   0.00733  -0.0606  0.0030  0.8312  -8.1734   0.0000   0.0000   0.0000   0.2846
  10.300   1.3211   0.01230   0.00745  -0.0598  0.0030  0.8361  -8.2720   0.0000   0.0000   0.0000   0.2836
  10.400   1.3269   0.01241   0.00757  -0.0589  0.0030  0.8405  -8.3712   0.0000   0.0000   0.0000   0.2826
  10.500   1.3328   0.01253   0.00770  -0.0581  0.0030  0.8436  -8.4710   0.0000   0.0000   0.0000   0.2817
  10.600   1.3386   0.01265   0.00783  -0.0573  0.0030  0.8456  -8.5712   0.0000   0.0000   0.0000   0.2807
  10.700   1.3444   0.01278   0.00796  -0.0564  0.0030  0.8471  -8.6717   0.0000   0.0000   0.0000   0.2797
  10.800   1.3502   0.01290   0.00810  -0.0556  0.0030  0.8483  -8.7722   0.0000   0.0000   0.0000   0.2788
  10.900   1.3558   0.01304   0.00824  -0.0548  0.0030  0.8503  -8.8726   0.0000   0.0000   0.0000   0.2779
  11.000   1.3617   0.01314   0.00837  -0.0540  0.0030  0.8574  -8.9722   0.0000   0.0000   0.0000   0.2769
  11.100   1.3625   0.01329   0.00856  -0.0523  0.0030  0.8674  -9.0423   0.0000   0.0000   0.0000   0.2755
  11.200   1.3641   0.01344   0.00874  -0.0507  0.0030  0.8767  -9.1180   0.0000   0.0000   0.0000   0.2742
  11.300   1.3676   0.01358   0.00891  -0.0495  0.0030  0.8853  -9.2061   0.0000   0.0000   0.0000   0.2731
  11.400   1.3719   0.01372   0.00908  -0.0485  0.0030  0.8924  -9.2997   0.0000   0.0000   0.0000   0.2720
  11.500   1.3766   0.01387   0.00925  -0.0475  0.0030  0.8976  -9.3965   0.0000   0.0000   0.0000   0.2711
  11.600   1.3811   0.01401   0.00941  -0.0465  0.0030  0.9099  -9.4925   0.0000   0.0000   0.0000   0.2701
  11.700   1.3838   0.01411   0.00957  -0.0452  0.0030  0.9310  -9.5772   0.0000   0.0000   0.0000   0.2689
  11.800   1.3872   0.01424   0.00973  -0.0439  0.0030  0.9422  -9.6668   0.0000   0.0000   0.0000   0.2678
  11.900   1.3919   0.01440   0.00990  -0.0430  0.0030  0.9460  -9.7648   0.0000   0.0000   0.0000   0.2668
  12.000   1.3968   0.01456   0.01007  -0.0421  0.0030  0.9482  -9.8648   0.0000   0.0000   0.0000   0.2659
  12.100   1.4019   0.01473   0.01025  -0.0413  0.0030  0.9512  -9.9656   0.0000   0.0000   0.0000   0.2651
  12.200   1.4069   0.01490   0.01043  -0.0405  0.0030  0.9654  -10.0666   0.0000   0.0000   0.0000   0.2642
  12.300   1.4075   0.01513   0.01070  -0.0390  0.0030  0.9859  -10.1389   0.0000   0.0000   0.0000   0.2630
  12.400   1.4099   0.01533   0.01092  -0.0378  0.0030  1.0000  -10.2230   0.0000   0.0000   0.0000   0.2619
  12.500   1.4139   0.01553   0.01112  -0.0369  0.0030  1.0000  -10.3177   0.0000   0.0000   0.0000   0.2610
  12.600   1.4184   0.01573   0.01133  -0.0361  0.0030  1.0000  -10.4170   0.0000   0.0000   0.0000   0.2602
  12.700   1.4233   0.01592   0.01153  -0.0353  0.0030  1.0000  -10.5187   0.0000   0.0000   0.0000   0.2594
  12.800   1.4283   0.01612   0.01174  -0.0346  0.0030  1.0000  -10.6217   0.0000   0.0000   0.0000   0.2586
  12.900   1.4333   0.01632   0.01195  -0.0338  0.0030  1.0000  -10.7255   0.0000   0.0000   0.0000   0.2578
  13.000   1.4384   0.01653   0.01216  -0.0331  0.0030  1.0000  -10.8296   0.0000   0.0000   0.0000   0.2571
  13.100   1.4434   0.01674   0.01238  -0.0324  0.0030  1.0000  -10.9340   0.0000   0.0000   0.0000   0.2563
  13.200   1.4484   0.01695   0.01260  -0.0317  0.0030  1.0000  -11.0382   0.0000   0.0000   0.0000   0.2556
  13.300   1.4532   0.01717   0.01283  -0.0309  0.0030  1.0000  -11.1422   0.0000   0.0000   0.0000   0.2548
  13.400   1.4580   0.01740   0.01307  -0.0302  0.0029  1.0000  -11.2456   0.0000   0.0000   0.0000   0.2541
  13.500   1.4624   0.01764   0.01332  -0.0294  0.0029  1.0000  -11.3468   0.0000   0.0000   0.0000   0.2533
  13.600   1.4610   0.01803   0.01373  -0.0279  0.0029  1.0000  -11.4067   0.0000   0.0000   0.0000   0.2521
  13.700   1.4628   0.01835   0.01406  -0.0268  0.0029  1.0000  -11.4899   0.0000   0.0000   0.0000   0.2512
  13.800   1.4663   0.01863   0.01435  -0.0260  0.0029  1.0000  -11.5854   0.0000   0.0000   0.0000   0.2504
  13.900   1.4704   0.01890   0.01463  -0.0252  0.0029  1.0000  -11.6853   0.0000   0.0000   0.0000   0.2496
  14.000   1.4747   0.01917   0.01491  -0.0245  0.0029  1.0000  -11.7873   0.0000   0.0000   0.0000   0.2489
  14.100   1.4792   0.01943   0.01518  -0.0238  0.0029  1.0000  -11.9002   0.0000   0.0000   0.0000   0.2482
  14.200   1.4836   0.01970   0.01546  -0.0231  0.0029  1.0000  -12.0535   0.0000   0.0000   0.0000   0.2475
  14.300   1.4881   0.01997   0.01575  -0.0225  0.0029  1.0000  -12.2074   0.0000   0.0000   0.0000   0.2468
  14.400   1.4925   0.02025   0.01603  -0.0218  0.0029  1.0000  -12.3615   0.0000   0.0000   0.0000   0.2461
  14.500   1.4968   0.02053   0.01633  -0.0211  0.0029  1.0000  -12.5153   0.0000   0.0000   0.0000   0.2454
  14.600   1.5009   0.02082   0.01663  -0.0204  0.0029  1.0000  -12.6686   0.0000   0.0000   0.0000   0.2448
  14.700   1.5049   0.02112   0.01694  -0.0198  0.0029  1.0000  -12.8209   0.0000   0.0000   0.0000   0.2441
  14.800   1.5030   0.02164   0.01748  -0.0184  0.0029  1.0000  -12.9085   0.0000   0.0000   0.0000   0.2430
  14.900   1.5036   0.02208   0.01794  -0.0174  0.0029  1.0000  -13.0245   0.0000   0.0000   0.0000   0.2421
  15.000   1.5065   0.02245   0.01831  -0.0166  0.0029  1.0000  -13.1659   0.0000   0.0000   0.0000   0.2414
  15.100   1.5100   0.02279   0.01867  -0.0160  0.0029  1.0000  -13.3149   0.0000   0.0000   0.0000   0.2407
  15.200   1.5138   0.02312   0.01901  -0.0153  0.0029  1.0000  -13.4675   0.0000   0.0000   0.0000   0.2401
  15.300   1.5177   0.02345   0.01936  -0.0147  0.0029  1.0000  -13.6221   0.0000   0.0000   0.0000   0.2395
  15.400   1.5216   0.02378   0.01969  -0.0141  0.0029  1.0000  -13.7776   0.0000   0.0000   0.0000   0.2388
  15.500   1.5254   0.02411   0.02003  -0.0135  0.0029  1.0000  -13.9333   0.0000   0.0000   0.0000   0.2382
  15.600   1.5292   0.02444   0.02038  -0.0129  0.0029  1.0000  -14.0889   0.0000   0.0000   0.0000   0.2376
  15.700   1.5329   0.02479   0.02074  -0.0123  0.0029  1.0000  -14.2437   0.0000   0.0000   0.0000   0.2370
  15.800   1.5364   0.02515   0.02111  -0.0117  0.0029  1.0000  -14.3974   0.0000   0.0000   0.0000   0.2364
  15.900   1.5397   0.02553   0.02150  -0.0111  0.0029  1.0000  -14.5493   0.0000   0.0000   0.0000   0.2358
  16.000   1.5358   0.02627   0.02227  -0.0099  0.0029  1.0000  -14.6158   0.0000   0.0000   0.0000   0.2348
  16.100   1.5362   0.02682   0.02284  -0.0091  0.0029  1.0000  -14.7341   0.0000   0.0000   0.0000   0.2340
  16.200   1.5386   0.02728   0.02332  -0.0085  0.0029  1.0000  -14.8764   0.0000   0.0000   0.0000   0.2334
  16.300   1.5416   0.02772   0.02377  -0.0079  0.0029  1.0000  -15.0260   0.0000   0.0000   0.0000   0.2328
  16.400   1.5448   0.02814   0.02421  -0.0074  0.0029  1.0000  -15.1789   0.0000   0.0000   0.0000   0.2323
  16.500   1.5481   0.02857   0.02465  -0.0069  0.0028  1.0000  -15.3333   0.0000   0.0000   0.0000   0.2317
  16.600   1.5508   0.02904   0.02516  -0.0063  0.0028  1.0000  -15.4807   0.0000   0.0000   0.0000   0.2311
  16.700   1.5538   0.02950   0.02563  -0.0058  0.0028  1.0000  -15.6308   0.0000   0.0000   0.0000   0.2306
  16.800   1.5567   0.02997   0.02612  -0.0053  0.0028  1.0000  -15.7826   0.0000   0.0000   0.0000   0.2300
  16.900   1.5595   0.03045   0.02661  -0.0048  0.0028  1.0000  -15.9333   0.0000   0.0000   0.0000   0.2295
  17.000   1.5622   0.03095   0.02713  -0.0043  0.0028  1.0000  -16.0820   0.0000   0.0000   0.0000   0.2289
  17.100   1.5589   0.03183   0.02803  -0.0034  0.0028  1.0000  -16.1565   0.0000   0.0000   0.0000   0.2282
  17.200   1.5565   0.03267   0.02890  -0.0027  0.0028  1.0000  -16.2428   0.0000   0.0000   0.0000   0.2274
  17.300   1.5580   0.03327   0.02951  -0.0022  0.0028  1.0000  -16.3782   0.0000   0.0000   0.0000   0.2269
  17.400   1.5603   0.03382   0.03009  -0.0018  0.0028  1.0000  -16.5230   0.0000   0.0000   0.0000   0.2264
  17.500   1.5628   0.03436   0.03065  -0.0013  0.0028  1.0000  -16.6718   0.0000   0.0000   0.0000   0.2259
  17.600   1.5654   0.03491   0.03120  -0.0009  0.0028  1.0000  -16.8225   0.0000   0.0000   0.0000   0.2254
  17.700   1.5680   0.03546   0.03177  -0.0006  0.0028  1.0000  -16.9741   0.0000   0.0000   0.0000   0.2249
  17.800   1.5706   0.03602   0.03235  -0.0002  0.0028  1.0000  -17.1248   0.0000   0.0000   0.0000   0.2245
  17.900   1.5729   0.03659   0.03294   0.0002  0.0028  1.0000  -17.2739   0.0000   0.0000   0.0000   0.2240
  18.000   1.5751   0.03719   0.03355   0.0006  0.0028  1.0000  -17.4204   0.0000   0.0000   0.0000   0.2235
  18.100   1.5769   0.03781   0.03419   0.0009  0.0028  1.0000  -17.5633   0.0000   0.0000   0.0000   0.2230
  18.200   1.5703   0.03911   0.03553   0.0016  0.0028  1.0000  -17.5918   0.0000   0.0000   0.0000   0.2224
  18.300   1.5685   0.04005   0.03650   0.0020  0.0028  1.0000  -17.6847   0.0000   0.0000   0.0000   0.2219
  18.400   1.5696   0.04078   0.03724   0.0023  0.0028  1.0000  -17.8171   0.0000   0.0000   0.0000   0.2214
  18.500   1.5714   0.04146   0.03794   0.0026  0.0028  1.0000  -17.9593   0.0000   0.0000   0.0000   0.2210
  18.600   1.5734   0.04213   0.03862   0.0028  0.0028  1.0000  -18.1043   0.0000   0.0000   0.0000   0.2206
  18.700   1.5753   0.04279   0.03930   0.0030  0.0028  1.0000  -18.2499   0.0000   0.0000   0.0000   0.2202
  18.800   1.5772   0.04345   0.03999   0.0033  0.0028  1.0000  -18.3946   0.0000   0.0000   0.0000   0.2198
  18.900   1.5790   0.04414   0.04069   0.0035  0.0028  1.0000  -18.5373   0.0000   0.0000   0.0000   0.2195
  19.000   1.5804   0.04486   0.04143   0.0037  0.0028  1.0000  -18.6766   0.0000   0.0000   0.0000   0.2191
  19.100   1.5816   0.04562   0.04221   0.0039  0.0028  1.0000  -18.8114   0.0000   0.0000   0.0000   0.2187
  19.200   1.5814   0.04651   0.04313   0.0041  0.0028  1.0000  -18.9285   0.0000   0.0000   0.0000   0.2183
  19.300   1.5707   0.04848   0.04514   0.0042  0.0028  1.0000  -18.8913   0.0000   0.0000   0.0000   0.2179
  19.400   1.5711   0.04939   0.04607   0.0043  0.0028  1.0000  -19.0147   0.0000   0.0000   0.0000   0.2176
  19.500   1.5722   0.05024   0.04694   0.0044  0.0028  1.0000  -19.1483   0.0000   0.0000   0.0000   0.2173
  19.600   1.5735   0.05107   0.04779   0.0045  0.0027  1.0000  -19.2851   0.0000   0.0000   0.0000   0.2170
  19.700   1.5748   0.05191   0.04865   0.0046  0.0027  1.0000  -19.4220   0.0000   0.0000   0.0000   0.2167
  19.800   1.5759   0.05277   0.04952   0.0046  0.0027  1.0000  -19.5573   0.0000   0.0000   0.0000   0.2164
  19.900   1.5769   0.05366   0.05044   0.0046  0.0027  1.0000  -19.6892   0.0000   0.0000   0.0000   0.2161
  20.000   1.5774   0.05459   0.05139   0.0046  0.0027  1.0000  -19.8160   0.0000   0.0000   0.0000   0.2159
  20.100   1.5775   0.05559   0.05241   0.0046  0.0027  1.0000  -19.9353   0.0000   0.0000   0.0000   0.2156
  20.200   1.5653   0.05807   0.05495   0.0043  0.0027  1.0000  -19.8640   0.0000   0.0000   0.0000   0.2155
  20.300   1.5640   0.05930   0.05620   0.0041  0.0027  1.0000  -19.9611   0.0000   0.0000   0.0000   0.2153
  20.400   1.5642   0.06035   0.05727   0.0040  0.0027  1.0000  -20.0802   0.0000   0.0000   0.0000   0.2151
  20.500   1.5647   0.06137   0.05832   0.0039  0.0027  1.0000  -20.2047   0.0000   0.0000   0.0000   0.2149
  20.600   1.5652   0.06240   0.05936   0.0037  0.0027  1.0000  -20.3297   0.0000   0.0000   0.0000   0.2148
  20.700   1.5656   0.06344   0.06043   0.0036  0.0027  1.0000  -20.4523   0.0000   0.0000   0.0000   0.2146
  20.800   1.5657   0.06453   0.06154   0.0034  0.0027  1.0000  -20.5701   0.0000   0.0000   0.0000   0.2144
  20.900   1.5653   0.06569   0.06272   0.0032  0.0027  1.0000  -20.6802   0.0000   0.0000   0.0000   0.2143
  21.000   1.5645   0.06693   0.06399   0.0029  0.0027  1.0000  -20.7830   0.0000   0.0000   0.0000   0.2142
  21.100   1.5501   0.07012   0.06723   0.0018  0.0027  1.0000  -20.6589   0.0000   0.0000   0.0000   0.2145
  21.200   1.5488   0.07148   0.06861   0.0014  0.0027  1.0000  -20.7518   0.0000   0.0000   0.0000   0.2145
  21.300   1.5483   0.07274   0.06990   0.0010  0.0027  1.0000  -20.8565   0.0000   0.0000   0.0000   0.2145
  21.400   1.5478   0.07399   0.07117   0.0006  0.0027  1.0000  -20.9625   0.0000   0.0000   0.0000   0.2144
  21.500   1.5472   0.07528   0.07249   0.0002  0.0027  1.0000  -21.0648   0.0000   0.0000   0.0000   0.2144
  21.600   1.5461   0.07663   0.07386  -0.0003  0.0027  1.0000  -21.1590   0.0000   0.0000   0.0000   0.2144
  21.700   1.5445   0.07808   0.07534  -0.0008  0.0027  1.0000  -21.2444   0.0000   0.0000   0.0000   0.2145
  21.800   1.5285   0.08186   0.07919  -0.0026  0.0027  1.0000  -21.0732   0.0000   0.0000   0.0000   0.2154
  21.900   1.5263   0.08349   0.08084  -0.0033  0.0027  1.0000  -21.1440   0.0000   0.0000   0.0000   0.2155
  22.000   1.5248   0.08501   0.08239  -0.0040  0.0027  1.0000  -21.2273   0.0000   0.0000   0.0000   0.2156
  22.100   1.5233   0.08654   0.08395  -0.0047  0.0027  1.0000  -21.3095   0.0000   0.0000   0.0000   0.2158
  22.200   1.5214   0.08816   0.08559  -0.0054  0.0027  1.0000  -21.3827   0.0000   0.0000   0.0000   0.2160
  22.300   1.5188   0.08993   0.08739  -0.0062  0.0027  1.0000  -21.4438   0.0000   0.0000   0.0000   0.2162
  22.500   0.8924   0.24190   0.24123  -0.0857  0.0023  1.0000  -5.1119   0.0000   0.0000   0.0000   0.3164
  22.600   0.8952   0.24252   0.24185  -0.0863  0.0023  1.0000  -5.2001   0.0000   0.0000   0.0000   0.3165
  22.700   0.8979   0.24316   0.24249  -0.0869  0.0023  1.0000  -5.2867   0.0000   0.0000   0.0000   0.3165
  22.800   0.9007   0.24381   0.24314  -0.0874  0.0024  1.0000  -5.3719   0.0000   0.0000   0.0000   0.3166
  22.900   0.9034   0.24448   0.24380  -0.0880  0.0024  1.0000  -5.4558   0.0000   0.0000   0.0000   0.3166
  23.000   0.9061   0.24515   0.24448  -0.0886  0.0024  1.0000  -5.5388   0.0000   0.0000   0.0000   0.3167
  23.100   0.9088   0.24584   0.24517  -0.0891  0.0024  1.0000  -5.6216   0.0000   0.0000   0.0000   0.3167
  23.200   0.9114   0.24653   0.24585  -0.0897  0.0024  1.0000  -5.7049   0.0000   0.0000   0.0000   0.3168
  23.300   0.9141   0.24721   0.24653  -0.0903  0.0024  1.0000  -5.7901   0.0000   0.0000   0.0000   0.3169
  23.400   0.9169   0.24786   0.24718  -0.0909  0.0024  1.0000  -5.8799   0.0000   0.0000   0.0000   0.3169
  23.500   0.9199   0.24843   0.24775  -0.0914  0.0024  1.0000  -5.9821   0.0000   0.0000   0.0000   0.3169
  23.600   1.4122   0.12853   0.12655  -0.0288  0.0027  1.0000  -20.5760   0.0000   0.0000   0.0000   0.2285
  23.700   1.3789   0.13694   0.13507  -0.0344  0.0027  1.0000  -19.9108   0.0000   0.0000   0.0000   0.2329
  23.800   1.3742   0.13932   0.13748  -0.0359  0.0027  1.0000  -19.8880   0.0000   0.0000   0.0000   0.2338
  23.900   1.3686   0.14190   0.14009  -0.0376  0.0027  1.0000  -19.8434   0.0000   0.0000   0.0000   0.2348
  24.100   1.3153   0.15631   0.15468  -0.0470  0.0027  1.0000  -18.7152   0.0000   0.0000   0.0000   0.2427
  24.200   1.3098   0.15887   0.15727  -0.0487  0.0027  1.0000  -18.6549   0.0000   0.0000   0.0000   0.2438
  24.300   1.2379   0.17643   0.17503  -0.0599  0.0027  1.0000  -16.8584   0.0000   0.0000   0.0000   0.2552
  24.400   1.2351   0.17848   0.17710  -0.0612  0.0027  1.0000  -16.8429   0.0000   0.0000   0.0000   0.2561
  24.500   1.2322   0.18055   0.17919  -0.0625  0.0027  1.0000  -16.8221   0.0000   0.0000   0.0000   0.2570
  24.600   1.2286   0.18279   0.18145  -0.0639  0.0027  1.0000  -16.7792   0.0000   0.0000   0.0000   0.2581
  24.700   1.1890   0.19365   0.19245  -0.0703  0.0027  1.0000  -15.6798   0.0000   0.0000   0.0000   0.2655


