xflr5 v6.61

 Calculated polar for: NACA 65(1)-412

 1 1 Reynolds number fixed          Mach number fixed         

 xtrf =   1.000 (top)        1.000 (bottom)
 Mach =   0.000     Re =    18.000 e 6     Ncrit =   9.000

  alpha     CL        CD       CDp       Cm    Top Xtr Bot Xtr   Cpmin    Chinge    XCp    
 ------- -------- --------- --------- -------- ------- ------- -------- --------- ---------
  -5.000  -0.2223   0.00529   0.00123  -0.0739  0.6505  0.0064  -3.0973   0.0000   0.0000   0.0000  -0.0906
  -4.500  -0.1643   0.00511   0.00108  -0.0747  0.6494  0.0077  -2.7053   0.0000   0.0000   0.0000  -0.2145
  -4.000  -0.1077   0.00543   0.00149  -0.0755  0.5984  0.0094  -2.1726   0.0000   0.0000   0.0000  -0.4638
  -3.500  -0.0510   0.00533   0.00119  -0.0762  0.5468  0.0094  -1.8644   0.0000   0.0000   0.0000  -1.2646
  -3.000   0.0048   0.00542   0.00100  -0.0767  0.4759  0.0097  -1.5718   0.0000   0.0000   0.0000  16.3858
  -2.500   0.0568   0.00613   0.00108  -0.0768  0.2478  0.0096  -1.2922   0.0000   0.0000   0.0000   1.6135
  -1.500   0.1673   0.00665   0.00105  -0.0775  0.0395  0.0126  -0.8119   0.0000   0.0000   0.0000   0.7156
  -1.000   0.2243   0.00666   0.00105  -0.0782  0.0298  0.0141  -0.5592   0.0000   0.0000   0.0000   0.5995
  -0.500   0.2813   0.00665   0.00106  -0.0789  0.0226  0.0257  -0.5489   0.0000   0.0000   0.0000   0.5306
   0.000   0.3382   0.00669   0.00109  -0.0796  0.0216  0.0264  -0.5754   0.0000   0.0000   0.0000   0.4848
   0.500   0.3944   0.00681   0.00116  -0.0802  0.0099  0.0267  -0.6040   0.0000   0.0000   0.0000   0.4521
   1.000   0.4507   0.00689   0.00123  -0.0807  0.0086  0.0270  -0.6336   0.0000   0.0000   0.0000   0.4276
   1.500   0.5069   0.00699   0.00131  -0.0813  0.0073  0.0314  -0.6736   0.0000   0.0000   0.0000   0.4084
   2.000   0.5629   0.00709   0.00140  -0.0818  0.0059  0.0382  -0.9478   0.0000   0.0000   0.0000   0.3930
   5.500   0.9482   0.00721   0.00264  -0.0854  0.0055  0.6767  -3.6593   0.0000   0.0000   0.0000   0.3345
   6.000   1.0000   0.00752   0.00296  -0.0852  0.0034  0.6926  -4.1430   0.0000   0.0000   0.0000   0.3291
   7.500   1.1534   0.00844   0.00382  -0.0842  0.0033  0.7074  -5.6531   0.0000   0.0000   0.0000   0.3151
   8.000   1.2021   0.00880   0.00421  -0.0835  0.0031  0.7297  -6.1925   0.0000   0.0000   0.0000   0.3109
   8.500   1.2501   0.00914   0.00459  -0.0826  0.0031  0.7455  -6.7414   0.0000   0.0000   0.0000   0.3068
   9.000   1.2965   0.00953   0.00497  -0.0814  0.0031  0.7485  -7.3011   0.0000   0.0000   0.0000   0.3029
   9.500   1.3412   0.00994   0.00539  -0.0800  0.0031  0.7630  -7.8691   0.0000   0.0000   0.0000   0.2990
  10.000   1.3837   0.01034   0.00583  -0.0781  0.0031  0.7852  -8.4416   0.0000   0.0000   0.0000   0.2950
  10.500   1.4233   0.01076   0.00628  -0.0756  0.0031  0.7970  -9.0111   0.0000   0.0000   0.0000   0.2910
  11.000   1.4346   0.01113   0.00670  -0.0673  0.0031  0.8115  -9.4205   0.0000   0.0000   0.0000   0.2840
  11.500   1.4619   0.01159   0.00724  -0.0626  0.0031  0.8410  -9.9391   0.0000   0.0000   0.0000   0.2791
  12.000   1.4914   0.01215   0.00783  -0.0585  0.0031  0.8490  -10.4840   0.0000   0.0000   0.0000   0.2748
  12.500   1.5062   0.01285   0.00864  -0.0519  0.0031  0.8888  -10.9394   0.0000   0.0000   0.0000   0.2692
  18.000   1.6898   0.02858   0.02503  -0.0066  0.0029  1.0000  -19.0689   0.0000   0.0000   0.0000   0.2277
  18.500   1.6906   0.03177   0.02830  -0.0033  0.0029  1.0000  -19.7201   0.0000   0.0000   0.0000   0.2246
  19.000   1.7033   0.03439   0.03099  -0.0012  0.0029  1.0000  -20.5450   0.0000   0.0000   0.0000   0.2221
  19.500   1.7162   0.03709   0.03375   0.0006  0.0029  1.0000  -21.3837   0.0000   0.0000   0.0000   0.2198
  20.000   1.7101   0.04153   0.03829   0.0026  0.0029  1.0000  -21.9494   0.0000   0.0000   0.0000   0.2174


