xflr5 v6.61

 Calculated polar for: S2091-101-83

 1 1 Reynolds number fixed          Mach number fixed         

 xtrf =   1.000 (top)        1.000 (bottom)
 Mach =   0.000     Re =    18.000 e 6     Ncrit =   9.000

  alpha     CL        CD       CDp       Cm    Top Xtr Bot Xtr   Cpmin    Chinge    XCp    
 ------- -------- --------- --------- -------- ------- ------- -------- --------- ---------
  -5.000  -0.1617   0.00533   0.00118  -0.0782  0.5444  0.0053  -4.0858   0.0000   0.0000   0.0000  -0.2456
  -4.500  -0.1036   0.00518   0.00102  -0.0783  0.5371  0.0053  -3.4304   0.0000   0.0000   0.0000  -0.5220
  -4.000  -0.0459   0.00517   0.00092  -0.0784  0.5049  0.0054  -2.8413   0.0000   0.0000   0.0000  -1.4878
  -3.500   0.0122   0.00507   0.00080  -0.0786  0.4893  0.0053  -2.4635   0.0000   0.0000   0.0000   6.7851
  -3.000   0.0702   0.00501   0.00071  -0.0787  0.4787  0.0054  -2.1032   0.0000   0.0000   0.0000   1.3845
  -2.500   0.1279   0.00502   0.00065  -0.0789  0.4418  0.0055  -1.7631   0.0000   0.0000   0.0000   0.8718
  -2.000   0.1859   0.00499   0.00060  -0.0790  0.4319  0.0060  -1.4414   0.0000   0.0000   0.0000   0.6777
  -1.500   0.2435   0.00504   0.00058  -0.0792  0.3996  0.0081  -1.1396   0.0000   0.0000   0.0000   0.5761
  -1.000   0.3012   0.00502   0.00054  -0.0794  0.3837  0.0134  -0.8578   0.0000   0.0000   0.0000   0.5134
  -0.500   0.3586   0.00490   0.00050  -0.0796  0.3594  0.0534  -0.6614   0.0000   0.0000   0.0000   0.4711
   0.000   0.4166   0.00491   0.00049  -0.0798  0.3461  0.0582  -0.7175   0.0000   0.0000   0.0000   0.4402
   0.500   0.4736   0.00508   0.00055  -0.0799  0.3113  0.0658  -0.7734   0.0000   0.0000   0.0000   0.4169
   1.000   0.5313   0.00509   0.00056  -0.0802  0.3014  0.0714  -0.8378   0.0000   0.0000   0.0000   0.3986
   1.500   0.5885   0.00521   0.00063  -0.0804  0.2867  0.0747  -0.9036   0.0000   0.0000   0.0000   0.3838
   2.000   0.6455   0.00535   0.00070  -0.0806  0.2563  0.0755  -0.9759   0.0000   0.0000   0.0000   0.3716
   2.500   0.7004   0.00586   0.00094  -0.0805  0.1870  0.0609  -1.0510   0.0000   0.0000   0.0000   0.3613
   3.000   0.7576   0.00589   0.00100  -0.0808  0.1810  0.0815  -1.1302   0.0000   0.0000   0.0000   0.3525
   3.500   0.8143   0.00594   0.00110  -0.0810  0.1747  0.1395  -1.2224   0.0000   0.0000   0.0000   0.3448
   4.000   0.8705   0.00584   0.00129  -0.0813  0.1603  0.3316  -1.3165   0.0000   0.0000   0.0000   0.3383
   4.500   0.9269   0.00590   0.00142  -0.0816  0.1463  0.4029  -1.4286   0.0000   0.0000   0.0000   0.3323
   5.000   0.9823   0.00591   0.00166  -0.0818  0.1347  0.5882  -1.5564   0.0000   0.0000   0.0000   0.3271
   5.500   1.0372   0.00580   0.00190  -0.0819  0.1161  0.8080  -1.7128   0.0000   0.0000   0.0000   0.3222
   6.000   1.0823   0.00703   0.00287  -0.0805  0.0181  0.9376  -1.8830   0.0000   0.0000   0.0000   0.3170
   6.500   1.1353   0.00751   0.00334  -0.0802  0.0027  1.0000  -2.0892   0.0000   0.0000   0.0000   0.3127
   7.000   1.1895   0.00785   0.00363  -0.0802  0.0017  1.0000  -2.3195   0.0000   0.0000   0.0000   0.3088
   7.500   1.2434   0.00818   0.00393  -0.0801  0.0011  1.0000  -2.6214   0.0000   0.0000   0.0000   0.3051
   8.000   1.2969   0.00854   0.00425  -0.0800  0.0008  1.0000  -2.9384   0.0000   0.0000   0.0000   0.3017
   8.500   1.3500   0.00891   0.00458  -0.0799  0.0007  1.0000  -3.3058   0.0000   0.0000   0.0000   0.2984
   9.000   1.4024   0.00931   0.00495  -0.0797  0.0006  1.0000  -3.7680   0.0000   0.0000   0.0000   0.2953
   9.500   1.4543   0.00973   0.00536  -0.0795  0.0010  1.0000  -4.2467   0.0000   0.0000   0.0000   0.2923
  10.000   1.5055   0.01017   0.00577  -0.0792  0.0007  1.0000  -4.7502   0.0000   0.0000   0.0000   0.2895
  10.500   1.5560   0.01064   0.00622  -0.0788  0.0006  1.0000  -5.2719   0.0000   0.0000   0.0000   0.2866
  11.000   1.6055   0.01115   0.00671  -0.0783  0.0006  1.0000  -5.8110   0.0000   0.0000   0.0000   0.2839
  11.500   1.6540   0.01168   0.00723  -0.0777  0.0006  1.0000  -6.3666   0.0000   0.0000   0.0000   0.2812
  12.000   1.7014   0.01226   0.00778  -0.0769  0.0006  1.0000  -6.9371   0.0000   0.0000   0.0000   0.2785
  12.500   1.7474   0.01287   0.00841  -0.0759  0.0006  1.0000  -7.5220   0.0000   0.0000   0.0000   0.2758
  13.000   1.7917   0.01353   0.00906  -0.0748  0.0006  1.0000  -8.3049   0.0000   0.0000   0.0000   0.2731
  13.500   1.8339   0.01423   0.00977  -0.0733  0.0005  1.0000  -9.1266   0.0000   0.0000   0.0000   0.2704
  14.000   1.8733   0.01499   0.01054  -0.0715  0.0005  1.0000  -9.9581   0.0000   0.0000   0.0000   0.2675
  14.500   1.9066   0.01581   0.01137  -0.0686  0.0005  1.0000  -10.7655   0.0000   0.0000   0.0000   0.2643
  15.000   1.9252   0.01677   0.01236  -0.0633  0.0005  1.0000  -11.4593   0.0000   0.0000   0.0000   0.2603
  15.500   1.9451   0.01802   0.01366  -0.0591  0.0005  1.0000  -12.1826   0.0000   0.0000   0.0000   0.2567
  16.000   1.9642   0.01955   0.01523  -0.0555  0.0005  1.0000  -12.9162   0.0000   0.0000   0.0000   0.2535
  16.500   1.9820   0.02142   0.01716  -0.0523  0.0005  1.0000  -13.6551   0.0000   0.0000   0.0000   0.2505
  17.000   1.9970   0.02371   0.01951  -0.0494  0.0005  1.0000  -14.3780   0.0000   0.0000   0.0000   0.2477
  17.500   2.0086   0.02640   0.02226  -0.0468  0.0005  1.0000  -15.0771   0.0000   0.0000   0.0000   0.2451
  18.000   2.0216   0.02920   0.02513  -0.0447  0.0005  1.0000  -15.8067   0.0000   0.0000   0.0000   0.2427
  18.500   2.0258   0.03315   0.02916  -0.0430  0.0005  1.0000  -16.4431   0.0000   0.0000   0.0000   0.2406
  19.000   2.0255   0.03793   0.03403  -0.0419  0.0005  1.0000  -17.0325   0.0000   0.0000   0.0000   0.2387
  19.500   2.0214   0.04354   0.03974  -0.0416  0.0005  1.0000  -17.5757   0.0000   0.0000   0.0000   0.2372
  20.000   2.0264   0.04823   0.04451  -0.0415  0.0005  1.0000  -18.2434   0.0000   0.0000   0.0000   0.2358
  20.500   2.0117   0.05535   0.05176  -0.0425  0.0005  1.0000  -18.6538   0.0000   0.0000   0.0000   0.2350
  21.000   1.9930   0.06392   0.06046  -0.0446  0.0005  1.0000  -18.9999   0.0000   0.0000   0.0000   0.2348
  21.500   1.9689   0.07398   0.07067  -0.0479  0.0005  1.0000  -19.2591   0.0000   0.0000   0.0000   0.2352
  22.000   1.9388   0.08542   0.08227  -0.0524  0.0005  1.0000  -19.4120   0.0000   0.0000   0.0000   0.2363
  22.500   1.9304   0.09322   0.09018  -0.0555  0.0005  1.0000  -19.8777   0.0000   0.0000   0.0000   0.2365
  23.000   1.8943   0.10571   0.10284  -0.0618  0.0005  1.0000  -19.8973   0.0000   0.0000   0.0000   0.2388
  23.500   1.8524   0.11905   0.11635  -0.0695  0.0005  1.0000  -19.7846   0.0000   0.0000   0.0000   0.2421
  24.000   1.8060   0.13151   0.12901  -0.0786  0.0005  1.0000  -19.5339   0.0000   0.0000   0.0000   0.2465


