xflr5 v6.61

 Calculated polar for: SELIG 3002-099-83

 1 1 Reynolds number fixed          Mach number fixed         

 xtrf =   1.000 (top)        1.000 (bottom)
 Mach =   0.000     Re =    18.000 e 6     Ncrit =   9.000

  alpha     CL        CD       CDp       Cm    Top Xtr Bot Xtr   Cpmin    Chinge    XCp    
 ------- -------- --------- --------- -------- ------- ------- -------- --------- ---------
  -5.000  -0.1574   0.00519   0.00122  -0.0846  0.6132  0.0054  -4.4486   0.0000   0.0000   0.0000  -0.2980
  -4.500  -0.0998   0.00509   0.00105  -0.0847  0.5822  0.0054  -3.7460   0.0000   0.0000   0.0000  -0.6134
  -4.000  -0.0421   0.00503   0.00091  -0.0849  0.5471  0.0055  -3.0887   0.0000   0.0000   0.0000  -1.7949
  -3.500   0.0155   0.00501   0.00080  -0.0851  0.5250  0.0055  -2.4769   0.0000   0.0000   0.0000   5.8102
  -3.000   0.0729   0.00503   0.00072  -0.0852  0.4829  0.0056  -1.9273   0.0000   0.0000   0.0000   1.4304
  -2.500   0.1301   0.00508   0.00066  -0.0853  0.4382  0.0057  -1.6068   0.0000   0.0000   0.0000   0.9106
  -2.000   0.1875   0.00512   0.00062  -0.0855  0.3989  0.0058  -1.3040   0.0000   0.0000   0.0000   0.7082
  -1.500   0.2451   0.00512   0.00059  -0.0857  0.3851  0.0061  -1.0189   0.0000   0.0000   0.0000   0.6005
  -1.000   0.3026   0.00516   0.00058  -0.0859  0.3513  0.0112  -0.7512   0.0000   0.0000   0.0000   0.5339
  -0.500   0.3595   0.00523   0.00059  -0.0861  0.3140  0.0291  -0.5968   0.0000   0.0000   0.0000   0.4888
   0.500   0.4737   0.00535   0.00063  -0.0865  0.2587  0.0572  -0.7264   0.0000   0.0000   0.0000   0.4309
   1.000   0.5292   0.00568   0.00076  -0.0865  0.2029  0.0613  -0.7974   0.0000   0.0000   0.0000   0.4113
   1.500   0.5859   0.00583   0.00083  -0.0866  0.1759  0.0615  -0.8772   0.0000   0.0000   0.0000   0.3953
   2.000   0.6423   0.00600   0.00093  -0.0867  0.1548  0.0574  -0.9657   0.0000   0.0000   0.0000   0.3821
   3.000   0.7551   0.00630   0.00114  -0.0870  0.1272  0.0571  -1.1802   0.0000   0.0000   0.0000   0.3614
   3.500   0.8119   0.00634   0.00124  -0.0873  0.1134  0.1170  -1.3110   0.0000   0.0000   0.0000   0.3532
   4.500   0.9254   0.00582   0.00167  -0.0886  0.0911  0.7016  -1.6388   0.0000   0.0000   0.0000   0.3404
   5.000   0.9815   0.00598   0.00181  -0.0887  0.0850  0.7152  -1.8358   0.0000   0.0000   0.0000   0.3346
   5.500   1.0358   0.00635   0.00210  -0.0886  0.0628  0.7410  -2.0695   0.0000   0.0000   0.0000   0.3292
   6.000   1.0843   0.00751   0.00295  -0.0876  0.0039  0.7485  -2.2825   0.0000   0.0000   0.0000   0.3239
   6.500   1.1383   0.00789   0.00329  -0.0874  0.0008  0.7500  -2.5377   0.0000   0.0000   0.0000   0.3193
   7.000   1.1924   0.00821   0.00358  -0.0874  0.0005  0.7507  -2.7961   0.0000   0.0000   0.0000   0.3151
   7.500   1.2462   0.00855   0.00388  -0.0873  0.0005  0.7512  -3.0750   0.0000   0.0000   0.0000   0.3112
   8.000   1.2995   0.00891   0.00421  -0.0871  0.0005  0.7515  -3.4299   0.0000   0.0000   0.0000   0.3075
   8.500   1.3523   0.00929   0.00456  -0.0869  0.0005  0.7518  -3.7976   0.0000   0.0000   0.0000   0.3040
   9.000   1.4047   0.00969   0.00494  -0.0866  0.0005  0.7583  -4.1779   0.0000   0.0000   0.0000   0.3007
   9.500   1.4566   0.01010   0.00536  -0.0864  0.0005  0.7725  -4.5716   0.0000   0.0000   0.0000   0.2975
  10.000   1.5078   0.01053   0.00580  -0.0860  0.0005  0.7846  -5.0576   0.0000   0.0000   0.0000   0.2944
  10.500   1.5583   0.01100   0.00627  -0.0856  0.0005  0.7938  -5.6030   0.0000   0.0000   0.0000   0.2915
  11.000   1.6081   0.01150   0.00677  -0.0850  0.0005  0.7980  -6.1674   0.0000   0.0000   0.0000   0.2886
  11.500   1.6570   0.01204   0.00731  -0.0844  0.0004  0.8077  -6.7641   0.0000   0.0000   0.0000   0.2857
  12.000   1.7051   0.01259   0.00789  -0.0837  0.0004  0.8315  -7.6016   0.0000   0.0000   0.0000   0.2829
  12.500   1.7519   0.01318   0.00854  -0.0828  0.0004  0.8638  -8.4682   0.0000   0.0000   0.0000   0.2802
  13.000   1.7951   0.01364   0.00922  -0.0812  0.0004  1.0000  -9.3452   0.0000   0.0000   0.0000   0.2772
  13.500   1.8391   0.01435   0.00993  -0.0799  0.0004  1.0000  -10.2696   0.0000   0.0000   0.0000   0.2744
  14.000   1.8812   0.01511   0.01070  -0.0784  0.0004  1.0000  -11.2145   0.0000   0.0000   0.0000   0.2716
  14.500   1.9209   0.01593   0.01153  -0.0766  0.0004  1.0000  -12.1724   0.0000   0.0000   0.0000   0.2687
  15.000   1.9574   0.01681   0.01244  -0.0742  0.0004  1.0000  -13.1314   0.0000   0.0000   0.0000   0.2658
  15.500   1.9811   0.01774   0.01341  -0.0696  0.0004  1.0000  -13.9843   0.0000   0.0000   0.0000   0.2619
  16.000   2.0004   0.01887   0.01459  -0.0647  0.0004  1.0000  -14.8138   0.0000   0.0000   0.0000   0.2581
  16.500   2.0172   0.02032   0.01610  -0.0601  0.0004  1.0000  -15.6301   0.0000   0.0000   0.0000   0.2545
  17.000   2.0333   0.02211   0.01794  -0.0561  0.0004  1.0000  -16.4554   0.0000   0.0000   0.0000   0.2512
  17.500   2.0469   0.02429   0.02018  -0.0525  0.0004  1.0000  -17.2654   0.0000   0.0000   0.0000   0.2481
  18.000   2.0552   0.02696   0.02293  -0.0491  0.0004  1.0000  -18.0245   0.0000   0.0000   0.0000   0.2452
  18.500   2.0623   0.03021   0.02626  -0.0464  0.0004  1.0000  -18.7786   0.0000   0.0000   0.0000   0.2425
  19.000   2.0721   0.03358   0.02971  -0.0445  0.0004  1.0000  -19.5805   0.0000   0.0000   0.0000   0.2402
  19.500   2.0712   0.03818   0.03441  -0.0429  0.0004  1.0000  -20.2442   0.0000   0.0000   0.0000   0.2382
  20.000   2.0654   0.04371   0.04006  -0.0422  0.0004  1.0000  -20.8393   0.0000   0.0000   0.0000   0.2365
  20.500   2.0523   0.05028   0.04675  -0.0424  0.0004  1.0000  -21.3269   0.0000   0.0000   0.0000   0.2353
  21.000   2.0360   0.05828   0.05489  -0.0441  0.0004  1.0000  -21.7558   0.0000   0.0000   0.0000   0.2348
  21.500   2.0138   0.06797   0.06473  -0.0471  0.0004  1.0000  -22.0757   0.0000   0.0000   0.0000   0.2350
  22.000   1.9847   0.07934   0.07627  -0.0517  0.0004  1.0000  -22.2653   0.0000   0.0000   0.0000   0.2361
  22.500   1.9465   0.09252   0.08964  -0.0580  0.0004  1.0000  -22.2700   0.0000   0.0000   0.0000   0.2383
  24.000   1.7606   0.14374   0.14155  -0.0920  0.0004  1.0000  -20.5881   0.0000   0.0000   0.0000   0.2559
  24.500   1.6952   0.16488   0.16293  -0.1063  0.0004  1.0000  -19.7600   0.0000   0.0000   0.0000   0.2649
  25.000   1.5671   0.20566   0.20411  -0.1313  0.0004  1.0000  -17.3930   0.0000   0.0000   0.0000   0.2851


