xflr5 v6.61

 Calculated polar for: S4180-098-84

 1 1 Reynolds number fixed          Mach number fixed         

 xtrf =   1.000 (top)        1.000 (bottom)
 Mach =   0.000     Re =    18.000 e 6     Ncrit =   9.000

  alpha     CL        CD       CDp       Cm    Top Xtr Bot Xtr   Cpmin    Chinge    XCp    
 ------- -------- --------- --------- -------- ------- ------- -------- --------- ---------
  -4.000   0.0035   0.00522   0.00100  -0.0870  0.4511  0.0116  -3.9922   0.0000   0.0000   0.0000  25.6636
  -3.000   0.1202   0.00507   0.00077  -0.0871  0.4277  0.0120  -2.9752   0.0000   0.0000   0.0000   0.9822
  -2.500   0.1785   0.00503   0.00067  -0.0871  0.4072  0.0122  -2.5168   0.0000   0.0000   0.0000   0.7420
  -2.000   0.2369   0.00496   0.00059  -0.0872  0.3939  0.0123  -2.0809   0.0000   0.0000   0.0000   0.6199
  -1.500   0.2953   0.00492   0.00054  -0.0873  0.3887  0.0124  -1.6710   0.0000   0.0000   0.0000   0.5462
  -1.000   0.3532   0.00499   0.00052  -0.0873  0.3679  0.0124  -1.2884   0.0000   0.0000   0.0000   0.4970
  -0.500   0.4114   0.00498   0.00049  -0.0874  0.3474  0.0125  -0.9366   0.0000   0.0000   0.0000   0.4616
   0.500   0.5272   0.00509   0.00053  -0.0876  0.3210  0.0128  -0.8378   0.0000   0.0000   0.0000   0.4142
   1.000   0.5852   0.00511   0.00054  -0.0877  0.3033  0.0131  -0.8961   0.0000   0.0000   0.0000   0.3974
   1.500   0.6421   0.00534   0.00065  -0.0878  0.2666  0.0152  -0.9540   0.0000   0.0000   0.0000   0.3838
   2.000   0.7000   0.00535   0.00069  -0.0880  0.2592  0.0277  -1.0222   0.0000   0.0000   0.0000   0.3722
   2.500   0.7565   0.00559   0.00084  -0.0880  0.2189  0.0575  -1.1010   0.0000   0.0000   0.0000   0.3624
   3.000   0.8132   0.00578   0.00101  -0.0882  0.1899  0.1055  -1.1916   0.0000   0.0000   0.0000   0.3540
   3.500   0.8707   0.00573   0.00117  -0.0886  0.1747  0.2763  -1.2967   0.0000   0.0000   0.0000   0.3468
   4.000   0.9274   0.00590   0.00135  -0.0888  0.1488  0.3452  -1.4266   0.0000   0.0000   0.0000   0.3402
   4.500   0.9842   0.00595   0.00159  -0.0891  0.1342  0.5244  -1.5805   0.0000   0.0000   0.0000   0.3346
   5.000   1.0398   0.00618   0.00197  -0.0894  0.0895  0.7086  -1.7488   0.0000   0.0000   0.0000   0.3294
   5.500   1.0882   0.00798   0.00278  -0.0880  0.0053  0.3811  -1.9061   0.0000   0.0000   0.0000   0.3237
   6.000   1.1452   0.00781   0.00318  -0.0888  0.0033  0.7555  -2.0873   0.0000   0.0000   0.0000   0.3197
   6.500   1.2007   0.00791   0.00350  -0.0889  0.0027  0.8994  -2.2704   0.0000   0.0000   0.0000   0.3156
   7.000   1.2521   0.00807   0.00379  -0.0881  0.0023  1.0000  -2.4848   0.0000   0.0000   0.0000   0.3112
   7.500   1.3065   0.00841   0.00409  -0.0880  0.0020  1.0000  -2.7228   0.0000   0.0000   0.0000   0.3075
   8.000   1.3605   0.00878   0.00441  -0.0880  0.0016  1.0000  -2.9672   0.0000   0.0000   0.0000   0.3040
   8.500   1.4141   0.00916   0.00476  -0.0878  0.0014  1.0000  -3.2177   0.0000   0.0000   0.0000   0.3007
   9.000   1.4680   0.00944   0.00505  -0.0878  0.0047  1.0000  -3.4718   0.0000   0.0000   0.0000   0.2976
   9.500   1.5202   0.00991   0.00549  -0.0875  0.0041  1.0000  -3.7763   0.0000   0.0000   0.0000   0.2946
  10.000   1.5717   0.01042   0.00596  -0.0872  0.0031  1.0000  -4.1072   0.0000   0.0000   0.0000   0.2916
  10.500   1.6228   0.01092   0.00643  -0.0869  0.0021  1.0000  -4.4493   0.0000   0.0000   0.0000   0.2888
  11.000   1.6732   0.01142   0.00691  -0.0865  0.0014  1.0000  -4.9201   0.0000   0.0000   0.0000   0.2860
  12.500   1.8184   0.01318   0.00863  -0.0846  0.0012  1.0000  -6.9190   0.0000   0.0000   0.0000   0.2780
  13.000   1.8643   0.01384   0.00928  -0.0836  0.0012  1.0000  -7.6324   0.0000   0.0000   0.0000   0.2753
  13.500   1.9084   0.01454   0.00998  -0.0825  0.0012  1.0000  -8.3633   0.0000   0.0000   0.0000   0.2727
  14.000   1.9504   0.01531   0.01075  -0.0811  0.0012  1.0000  -9.1065   0.0000   0.0000   0.0000   0.2700
  14.500   1.9894   0.01614   0.01159  -0.0793  0.0012  1.0000  -9.8540   0.0000   0.0000   0.0000   0.2672
  15.000   2.0238   0.01706   0.01252  -0.0768  0.0011  1.0000  -10.5887   0.0000   0.0000   0.0000   0.2642
  15.500   2.0385   0.01812   0.01364  -0.0710  0.0012  1.0000  -11.1806   0.0000   0.0000   0.0000   0.2601
  16.000   2.0543   0.01960   0.01516  -0.0666  0.0011  1.0000  -11.7899   0.0000   0.0000   0.0000   0.2566
  16.500   2.0687   0.02151   0.01713  -0.0628  0.0011  1.0000  -12.3973   0.0000   0.0000   0.0000   0.2534
  17.000   2.0805   0.02399   0.01967  -0.0597  0.0011  1.0000  -12.9910   0.0000   0.0000   0.0000   0.2506
  17.500   2.0891   0.02700   0.02276  -0.0572  0.0011  1.0000  -13.5645   0.0000   0.0000   0.0000   0.2480
  18.000   2.0943   0.03069   0.02652  -0.0553  0.0011  1.0000  -14.1108   0.0000   0.0000   0.0000   0.2458
  18.500   2.1036   0.03444   0.03034  -0.0540  0.0011  1.0000  -14.7080   0.0000   0.0000   0.0000   0.2438
  19.000   2.1018   0.03965   0.03564  -0.0534  0.0011  1.0000  -15.1958   0.0000   0.0000   0.0000   0.2422
  19.500   2.0952   0.04584   0.04194  -0.0536  0.0011  1.0000  -15.6324   0.0000   0.0000   0.0000   0.2410
  20.000   2.0828   0.05311   0.04933  -0.0548  0.0011  1.0000  -16.0033   0.0000   0.0000   0.0000   0.2403
  21.000   2.0373   0.07191   0.06842  -0.0601  0.0011  1.0000  -16.4897   0.0000   0.0000   0.0000   0.2405
  21.500   2.0312   0.07938   0.07599  -0.0625  0.0011  1.0000  -16.9258   0.0000   0.0000   0.0000   0.2403
  22.000   2.0022   0.09089   0.08765  -0.0673  0.0011  1.0000  -17.0694   0.0000   0.0000   0.0000   0.2415
  22.500   1.9648   0.10383   0.10077  -0.0736  0.0011  1.0000  -17.0831   0.0000   0.0000   0.0000   0.2438
  23.500   1.9180   0.12335   0.12056  -0.0852  0.0011  1.0000  -17.4138   0.0000   0.0000   0.0000   0.2475
  24.000   1.8732   0.13687   0.13427  -0.0945  0.0011  1.0000  -17.2283   0.0000   0.0000   0.0000   0.2519
  24.500   1.8650   0.14491   0.14239  -0.0997  0.0011  1.0000  -17.5638   0.0000   0.0000   0.0000   0.2532
  25.000   1.8224   0.16059   0.15826  -0.1100  0.0011  1.0000  -17.3467   0.0000   0.0000   0.0000   0.2585


