xflr5 v6.61

 Calculated polar for: SC(2)-0714 | Supercritical airfoil (coordinates from Raymer w/ one correction). These coordinates are actual model coordinates, not coordinates as designed. Ref: NASA TP-2890

 1 1 Reynolds number fixed          Mach number fixed         

 xtrf =   1.000 (top)        1.000 (bottom)
 Mach =   0.000     Re =    18.000 e 6     Ncrit =   9.000

  alpha     CL        CD       CDp       Cm    Top Xtr Bot Xtr   Cpmin    Chinge    XCp    
 ------- -------- --------- --------- -------- ------- ------- -------- --------- ---------
  -5.000  -0.0333   0.00653   0.00186  -0.1281  0.4092  0.0480  -1.2719   0.0000   0.0000   0.0000  -3.6839
  -4.500   0.0292   0.00652   0.00178  -0.1297  0.3507  0.0629  -1.0886   0.0000   0.0000   0.0000   4.7756
  -4.000   0.0908   0.00663   0.00174  -0.1311  0.2744  0.0781  -0.9140   0.0000   0.0000   0.0000   1.7170
  -3.500   0.1528   0.00667   0.00171  -0.1325  0.2256  0.0992  -0.7460   0.0000   0.0000   0.0000   1.1285
  -3.000   0.2133   0.00678   0.00171  -0.1335  0.1845  0.1037  -0.6077   0.0000   0.0000   0.0000   0.8820
  -2.500   0.2751   0.00682   0.00171  -0.1348  0.1465  0.1228  -0.4772   0.0000   0.0000   0.0000   0.7435
  -2.000   0.3378   0.00684   0.00171  -0.1363  0.1043  0.1707  -0.5619   0.0000   0.0000   0.0000   0.6555
  -1.000   0.4628   0.00680   0.00176  -0.1393  0.0637  0.2802  -0.8159   0.0000   0.0000   0.0000   0.5506
  -0.500   0.5286   0.00657   0.00176  -0.1416  0.0570  0.4039  -0.9699   0.0000   0.0000   0.0000   0.5170
   0.500   0.6513   0.00655   0.00188  -0.1438  0.0493  0.4940  -1.3350   0.0000   0.0000   0.0000   0.4686
   1.000   0.7115   0.00660   0.00197  -0.1446  0.0492  0.5270  -1.5274   0.0000   0.0000   0.0000   0.4505
   1.500   0.7713   0.00667   0.00209  -0.1452  0.0487  0.5556  -1.7267   0.0000   0.0000   0.0000   0.4350
   2.000   0.8297   0.00689   0.00227  -0.1455  0.0419  0.5784  -1.9402   0.0000   0.0000   0.0000   0.4217
   2.500   0.8878   0.00708   0.00242  -0.1457  0.0387  0.5802  -2.2046   0.0000   0.0000   0.0000   0.4099
   3.000   0.9452   0.00733   0.00260  -0.1457  0.0347  0.5827  -2.4782   0.0000   0.0000   0.0000   0.3995
   3.500   1.0028   0.00754   0.00278  -0.1458  0.0303  0.5895  -2.7633   0.0000   0.0000   0.0000   0.3903
   4.000   1.0602   0.00774   0.00296  -0.1459  0.0289  0.5942  -3.0593   0.0000   0.0000   0.0000   0.3819
   4.500   1.1162   0.00810   0.00325  -0.1456  0.0217  0.5984  -3.3608   0.0000   0.0000   0.0000   0.3743
   5.000   1.1726   0.00835   0.00347  -0.1454  0.0192  0.6004  -3.6753   0.0000   0.0000   0.0000   0.3673
   5.500   1.2287   0.00862   0.00371  -0.1452  0.0187  0.6056  -3.9997   0.0000   0.0000   0.0000   0.3609
   6.000   1.2837   0.00899   0.00403  -0.1447  0.0163  0.6145  -4.3312   0.0000   0.0000   0.0000   0.3549
   6.500   1.3384   0.00936   0.00437  -0.1442  0.0137  0.6225  -4.6701   0.0000   0.0000   0.0000   0.3493
   7.000   1.3929   0.00970   0.00468  -0.1437  0.0115  0.6266  -5.0192   0.0000   0.0000   0.0000   0.3441
   7.500   1.4472   0.01001   0.00498  -0.1431  0.0118  0.6280  -5.3781   0.0000   0.0000   0.0000   0.3391
   8.000   1.5009   0.01036   0.00530  -0.1424  0.0099  0.6288  -5.7450   0.0000   0.0000   0.0000   0.3345
   8.500   1.5539   0.01073   0.00564  -0.1415  0.0095  0.6293  -6.1171   0.0000   0.0000   0.0000   0.3300
   9.000   1.6063   0.01112   0.00601  -0.1406  0.0093  0.6297  -6.4948   0.0000   0.0000   0.0000   0.3257
   9.500   1.6515   0.01218   0.00701  -0.1383  0.0047  0.6300  -6.8242   0.0000   0.0000   0.0000   0.3212
  10.000   1.7004   0.01279   0.00760  -0.1367  0.0041  0.6302  -7.2507   0.0000   0.0000   0.0000   0.3171
  10.500   1.7482   0.01342   0.00822  -0.1349  0.0037  0.6304  -7.6839   0.0000   0.0000   0.0000   0.3131
  11.000   1.7955   0.01403   0.00882  -0.1331  0.0034  0.6306  -8.1297   0.0000   0.0000   0.0000   0.3092
  11.500   1.8418   0.01464   0.00942  -0.1311  0.0032  0.6351  -8.5831   0.0000   0.0000   0.0000   0.3054
  12.000   1.8867   0.01527   0.01006  -0.1288  0.0029  0.6403  -9.0406   0.0000   0.0000   0.0000   0.3017
  12.500   1.9299   0.01593   0.01073  -0.1263  0.0026  0.6444  -9.5007   0.0000   0.0000   0.0000   0.2980
  13.000   1.9690   0.01663   0.01145  -0.1230  0.0023  0.6474  -9.9502   0.0000   0.0000   0.0000   0.2941
  13.500   2.0046   0.01736   0.01219  -0.1190  0.0021  0.6492  -10.3913   0.0000   0.0000   0.0000   0.2902
  14.000   2.0373   0.01815   0.01300  -0.1146  0.0020  0.6501  -10.8263   0.0000   0.0000   0.0000   0.2861
  14.500   2.0620   0.01907   0.01395  -0.1087  0.0019  0.6517  -11.2276   0.0000   0.0000   0.0000   0.2817
  15.000   2.0884   0.02010   0.01501  -0.1035  0.0019  0.6594  -11.6428   0.0000   0.0000   0.0000   0.2776
  15.500   2.1139   0.02126   0.01622  -0.0984  0.0019  0.6677  -12.0589   0.0000   0.0000   0.0000   0.2736
  16.000   2.1399   0.02249   0.01750  -0.0936  0.0019  0.6745  -12.4826   0.0000   0.0000   0.0000   0.2698
  16.500   2.1607   0.02399   0.01904  -0.0883  0.0018  0.6780  -12.8828   0.0000   0.0000   0.0000   0.2659
  17.000   2.1853   0.02548   0.02057  -0.0839  0.0018  0.6794  -13.3082   0.0000   0.0000   0.0000   0.2624
  17.500   2.2018   0.02734   0.02248  -0.0786  0.0018  0.6802  -13.6922   0.0000   0.0000   0.0000   0.2586
  18.000   2.2159   0.02950   0.02470  -0.0735  0.0018  0.6844  -14.0643   0.0000   0.0000   0.0000   0.2550
  18.500   2.2308   0.03180   0.02707  -0.0690  0.0018  0.6915  -14.4434   0.0000   0.0000   0.0000   0.2516
  19.000   2.2393   0.03465   0.03000  -0.0642  0.0018  0.6966  -14.7852   0.0000   0.0000   0.0000   0.2482
  19.500   2.2488   0.03758   0.03300  -0.0601  0.0018  0.6991  -15.1334   0.0000   0.0000   0.0000   0.2450
  20.000   2.2505   0.04148   0.03699  -0.0562  0.0018  0.7002  -15.4312   0.0000   0.0000   0.0000   0.2420


