xflr5 v6.61

 Calculated polar for: NACA 2418

 1 1 Reynolds number fixed          Mach number fixed         

 xtrf =   1.000 (top)        1.000 (bottom)
 Mach =   0.680     Re =    10.000 e 6     Ncrit =   9.000

  alpha     CL        CD       CDp       Cm    Top Xtr Bot Xtr   Cpmin    Chinge    XCp    
 ------- -------- --------- --------- -------- ------- ------- -------- --------- ---------
  -4.000  -0.3401   0.00768   0.00327  -0.0840  0.4690  0.0740  -2.4729   0.0000   0.0000   0.0000  -0.0166
  -3.500  -0.2536   0.00744   0.00295  -0.0808  0.4498  0.0863  -2.1709   0.0000   0.0000   0.0000  -0.0902
  -3.000  -0.1668   0.00720   0.00269  -0.0781  0.4402  0.1006  -1.8940   0.0000   0.0000   0.0000  -0.2452
  -2.500  -0.0811   0.00705   0.00250  -0.0757  0.4224  0.1148  -1.6519   0.0000   0.0000   0.0000  -0.7261
  -2.000   0.0056   0.00685   0.00233  -0.0738  0.4169  0.1324  -1.4375   0.0000   0.0000   0.0000  13.9288
  -1.500   0.0894   0.00679   0.00224  -0.0718  0.3988  0.1488  -1.2516   0.0000   0.0000   0.0000   1.0713
  -1.000   0.1748   0.00665   0.00214  -0.0702  0.3903  0.1702  -1.0831   0.0000   0.0000   0.0000   0.6558
  -0.500   0.2567   0.00666   0.00214  -0.0682  0.3698  0.1893  -1.1438   0.0000   0.0000   0.0000   0.5149
   0.000   0.3409   0.00660   0.00213  -0.0666  0.3604  0.2133  -1.2297   0.0000   0.0000   0.0000   0.4422
   0.500   0.4213   0.00665   0.00220  -0.0644  0.3402  0.2375  -1.3203   0.0000   0.0000   0.0000   0.3980
   1.000   0.5021   0.00672   0.00230  -0.0622  0.3267  0.2607  -1.4179   0.0000   0.0000   0.0000   0.3679
   1.500   0.5825   0.00680   0.00243  -0.0598  0.3104  0.2878  -1.5215   0.0000   0.0000   0.0000   0.3457
   2.000   0.6585   0.00698   0.00264  -0.0565  0.2896  0.3142  -1.6322   0.0000   0.0000   0.0000   0.3280
   2.500   0.7275   0.00715   0.00286  -0.0516  0.2756  0.3406  -1.7452   0.0000   0.0000   0.0000   0.3124
   3.000   0.7976   0.00735   0.00315  -0.0468  0.2587  0.3787  -1.8684   0.0000   0.0000   0.0000   0.2994
   3.500   0.8717   0.00771   0.00361  -0.0427  0.2395  0.4213  -2.0077   0.0000   0.0000   0.0000   0.2890
   4.000   0.9447   0.00817   0.00419  -0.0383  0.2190  0.4760  -2.1618   0.0000   0.0000   0.0000   0.2798
   4.500   1.0165   0.00876   0.00491  -0.0335  0.1991  0.5250  -2.3310   0.0000   0.0000   0.0000   0.2715
   5.000   1.0880   0.00950   0.00576  -0.0285  0.1808  0.5637  -2.5192   0.0000   0.0000   0.0000   0.2639
   5.500   1.1595   0.01038   0.00676  -0.0232  0.1643  0.6014  -2.7293   0.0000   0.0000   0.0000   0.2570
   6.000   1.2263   0.01153   0.00808  -0.0174  0.1447  0.6474  -2.9583   0.0000   0.0000   0.0000   0.2503
   6.500   1.2939   0.01290   0.00962  -0.0116  0.1278  0.6931  -3.2212   0.0000   0.0000   0.0000   0.2442
   7.000   1.3556   0.01468   0.01162  -0.0054  0.1101  0.7447  -3.4947   0.0000   0.0000   0.0000   0.2383
   7.500   1.4174   0.01672   0.01394   0.0008  0.0951  0.8144  -3.8195   0.0000   0.0000   0.0000   0.2328
   8.000   1.4756   0.01908   0.01669   0.0074  0.0823  0.9079  -4.1682   0.0000   0.0000   0.0000   0.2273
   8.500   1.5200   0.02208   0.02002   0.0154  0.0747  1.0000  -4.5234   0.0000   0.0000   0.0000   0.2210
   9.000   1.5434   0.02686   0.02501   0.0227  0.0734  1.0000  -4.8274   0.0000   0.0000   0.0000   0.2151
   9.500   1.5241   0.03394   0.03228   0.0288  0.0730  1.0000  -4.9588   0.0000   0.0000   0.0000   0.2097


